version 2
run General-0-20230901-08:11:11-7318
attr configname General
attr datetime 20230901-08:11:11
attr experiment General
attr inifile omnetpp.ini
attr iterationvars ""
attr iterationvarsf ""
attr measurement ""
attr network Tictoc1
attr processid 7318
attr repetition 0
attr replication #0
attr resultdir results
attr runnumber 0
attr seedset 0
param Tictoc.tic.delayTime exponential(1s)
param Tictoc.toc.delayTime exponential(0.1s)
param Tictoc.*.lossProbability 0.2

vector 0 Tictoc1.tic transmissionSignal:vector ETV
attr source transmissionSignal
attr title "tx_t, vector"
vector 1 Tictoc1.toc receptionSignal:vector ETV
attr source receptionSignal
attr title "rx_t, vector"
vector 2 Tictoc1.toc transmissionSignal:vector ETV
attr source transmissionSignal
attr title "tx_t, vector"
vector 3 Tictoc1.tic receptionSignal:vector ETV
attr source receptionSignal
attr title "rx_t, vector"
0	1	0.548813502304	0
0	3	1.548813502304	0
0	5	2.548813502304	0
0	7	3.548813502304	0
0	9	4.548813502304	0
0	11	5.548813502304	0
0	13	6.548813502304	0
0	15	7.548813502304	0
0	17	8.548813502304	0
0	19	9.548813502304	0
0	21	10.548813502304	0
0	23	11.548813502304	0
0	25	12.548813502304	0
0	27	13.548813502304	0
0	29	14.548813502304	0
0	31	15.548813502304	0
0	35	16.747853326285	1
0	37	17.747853326285	1
0	39	18.747853326285	1
0	41	19.747853326285	1
0	43	20.747853326285	1
0	45	21.747853326285	1
0	47	22.747853326285	1
0	49	23.747853326285	1
0	53	24.276060963642	2
0	55	25.276060963642	2
0	57	26.276060963642	2
0	59	27.276060963642	2
0	61	28.276060963642	2
0	63	29.276060963642	2
0	65	30.276060963642	2
0	69	30.929101096836	3
0	71	31.929101096836	3
0	73	32.929101096836	3
0	77	36.403751128227	4
0	79	37.403751128227	4
0	81	38.403751128227	4
0	83	39.403751128227	4
0	85	40.403751128227	4
0	87	41.403751128227	4
0	89	42.403751128227	4
0	91	43.403751128227	4
0	93	44.403751128227	4
0	95	45.403751128227	4
0	97	46.403751128227	4
0	99	47.403751128227	4
0	103	49.221542179748	5
0	105	50.221542179748	5
0	107	51.221542179748	5
0	109	52.221542179748	5
0	111	53.221542179748	5
0	113	54.221542179748	5
0	115	55.221542179748	5
0	117	56.221542179748	5
0	119	57.221542179748	5
0	121	58.221542179748	5
0	123	59.221542179748	5
0	125	60.221542179748	5
0	127	61.221542179748	5
0	129	62.221542179748	5
0	131	63.221542179748	5
0	133	64.221542179748	5
0	135	65.221542179748	5
0	137	66.221542179748	5
0	139	67.221542179748	5
0	141	68.221542179748	5
0	145	70.944711426569	6
0	147	71.944711426569	6
0	149	72.944711426569	6
0	151	73.944711426569	6
0	153	74.944711426569	6
0	157	75.473444658065	7
0	159	76.473444658065	7
0	163	78.901004167795	8
0	165	79.901004167795	8
0	167	80.901004167795	8
0	169	81.901004167795	8
0	171	82.901004167795	8
0	173	83.901004167795	8
0	175	84.901004167795	8
0	177	85.901004167795	8
0	179	86.901004167795	8
0	181	87.901004167795	8
0	183	88.901004167795	8
0	185	89.901004167795	8
0	187	90.901004167795	8
0	189	91.901004167795	8
0	191	92.901004167795	8
0	195	93.635569048312	9
0	197	94.635569048312	9
0	199	95.635569048312	9
0	201	96.635569048312	9
0	203	97.635569048312	9
0	207	99.685275027072	10
1	32	15.648813502304	1
1	50	23.847853326285	2
1	66	30.376060963642	3
1	74	33.029101096836	4
1	100	47.503751128227	5
1	142	68.321542179748	6
1	154	75.044711426569	7
1	160	76.573444658065	8
1	192	93.001004167795	9
1	204	97.735569048312	10
2	33	15.680649116388	0
2	51	24.028690252712	0
2	67	30.526639389506	0
2	75	33.093272014104	0
2	101	47.645887596236	0
2	143	68.554433517169	0
2	155	75.164322206515	0
2	161	76.68333590482	0
2	193	93.320298832	0
2	205	97.841443319821	0
3	34	15.780649116388	1
3	52	24.128690252712	2
3	68	30.626639389506	3
3	76	33.193272014104	4
3	102	47.745887596236	5
3	144	68.654433517169	6
3	156	75.264322206515	7
3	162	76.78333590482	8
3	194	93.420298832	9
3	206	97.941443319821	10

