version 2
run General-0-20230901-02:19:09-1666
attr configname General
attr datetime 20230901-02:19:09
attr experiment General
attr inifile omnetpp.ini
attr iterationvars ""
attr iterationvarsf ""
attr measurement ""
attr network Tictoc1
attr processid 1666
attr repetition 0
attr replication #0
attr resultdir results
attr runnumber 0
attr seedset 0
param Tictoc.tic.delayTime exponential(1s)
param Tictoc.toc.delayTime exponential(0.1s)
param Tictoc.*.lossProbability 0.2

vector 0 Tictoc1.tic transmissionSignal:vector ETV
attr source transmissionSignal
attr title "tx_t, vector"
vector 1 Tictoc1.toc receptionSignal:vector ETV
attr source receptionSignal
attr title "rx_t, vector"
vector 2 Tictoc1.toc transmissionSignal:vector ETV
attr source transmissionSignal
attr title "tx_t, vector"
vector 3 Tictoc1.tic receptionSignal:vector ETV
attr source receptionSignal
attr title "rx_t, vector"
0	1	1	0
0	5	2.289856038848	1
0	9	3.675816460055	2
0	13	5.070970993643	3
0	17	6.458867399063	4
0	19	7.458867399063	4
0	23	8.762683329129	5
0	25	9.762683329129	5
0	27	10.762683329129	5
0	29	11.762683329129	5
0	33	12.968521796038	6
0	37	14.200357410122	7
0	39	15.200357410122	7
0	41	16.200357410122	7
0	45	17.567578530154	8
0	49	18.832966786876	9
0	53	20.082853987778	10
0	57	21.463690914205	11
0	59	22.463690914205	11
0	61	23.463690914205	11
0	63	24.463690914205	11
0	67	25.665733473045	12
0	69	26.665733473045	12
0	73	28.180750465913	13
0	77	29.395873551279	14
0	81	30.79996277287	15
0	85	32.064133690138	16
0	89	33.425533897627	17
0	91	34.425533897627	17
0	95	35.777187495026	18
0	99	36.98977493597	19
0	103	38.291918123405	20
0	107	39.507391091455	21
0	111	40.996833139254	22
0	115	42.27061586843	23
0	117	43.27061586843	23
0	119	44.27061586843	23
0	121	45.27061586843	23
0	123	46.27061586843	23
0	125	47.27061586843	23
0	129	48.604144886892	24
0	131	49.604144886892	24
0	133	50.604144886892	24
0	137	51.818672689621	25
0	139	52.818672689621	25
0	141	53.818672689621	25
0	145	55.034886338566	26
0	149	56.260030531773	27
0	153	57.508886236704	28
0	157	58.941777574125	29
0	161	60.201552181807	30
0	163	61.201552181807	30
0	167	62.459005422481	31
0	171	63.778616202427	32
0	173	64.778616202427	32
0	175	65.778616202427	32
0	179	67.088507449182	33
0	183	68.399567193751	34
0	185	69.399567193751	34
0	187	70.399567193751	34
0	189	71.399567193751	34
0	191	72.399567193751	34
0	195	73.637463390179	35
0	199	74.882673596201	36
0	201	75.882673596201	36
0	205	77.086591911842	37
0	207	78.086591911842	37
0	211	79.73204159646	38
0	215	80.942805107276	39
0	219	82.166235259154	40
0	223	83.383826613697	41
0	227	84.689700885206	42
0	231	85.918908938533	43
0	233	86.918908938533	43
0	235	87.918908938533	43
0	237	88.918908938533	43
0	239	89.918908938533	43
0	243	91.136221684148	44
0	245	92.136221684148	44
0	247	93.136221684148	44
0	251	94.443028903863	45
0	253	95.443028903863	45
0	255	96.443028903863	45
0	259	97.664916963514	46
0	263	98.910918359288	47
1	2	1.1	1
1	6	2.389856038848	2
1	10	3.775816460055	3
1	14	5.170970993643	4
1	20	7.558867399063	5
1	30	11.862683329129	6
1	34	13.068521796038	7
1	42	16.300357410122	8
1	46	17.667578530154	9
1	50	18.932966786876	10
1	54	20.182853987778	11
1	64	24.563690914205	12
1	70	26.765733473045	13
1	74	28.280750465913	14
1	78	29.495873551279	15
1	82	30.89996277287	16
1	86	32.164133690138	17
1	92	34.525533897627	18
1	96	35.877187495026	19
1	100	37.08977493597	20
1	104	38.391918123405	21
1	108	39.607391091455	22
1	112	41.096833139254	23
1	126	47.37061586843	24
1	134	50.704144886892	25
1	142	53.918672689621	26
1	146	55.134886338566	27
1	150	56.360030531773	28
1	154	57.608886236704	29
1	158	59.041777574125	30
1	164	61.301552181807	31
1	168	62.559005422481	32
1	176	65.878616202427	33
1	180	67.188507449182	34
1	192	72.499567193751	35
1	196	73.737463390179	36
1	202	75.982673596201	37
1	208	78.186591911842	38
1	212	79.83204159646	39
1	216	81.042805107276	40
1	220	82.266235259154	41
1	224	83.483826613697	42
1	228	84.789700885206	43
1	240	90.018908938533	44
1	248	93.236221684148	45
1	256	96.543028903863	46
1	260	97.764916963514	47
1	264	99.010918359288	48
2	3	1.189856038848	0
2	7	2.575816460055	0
2	11	3.970970993643	0
2	15	5.358867399063	0
2	21	7.662683329129	0
2	31	11.868521796038	0
2	35	13.100357410122	0
2	43	16.467578530154	0
2	47	17.732966786876	0
2	51	18.982853987778	0
2	55	20.363690914205	0
2	65	24.565733473045	0
2	71	27.080750465913	0
2	75	28.295873551279	0
2	79	29.69996277287	0
2	83	30.964133690138	0
2	87	32.325533897627	0
2	93	34.677187495026	0
2	97	35.88977493597	0
2	101	37.191918123405	0
2	105	38.407391091455	0
2	109	39.896833139254	0
2	113	41.17061586843	0
2	127	47.504144886892	0
2	135	50.718672689621	0
2	143	53.934886338566	0
2	147	55.160030531773	0
2	151	56.408886236704	0
2	155	57.841777574125	0
2	159	59.101552181807	0
2	165	61.359005422481	0
2	169	62.678616202427	0
2	177	65.988507449182	0
2	181	67.299567193751	0
2	193	72.537463390179	0
2	197	73.782673596201	0
2	203	75.986591911842	0
2	209	78.63204159646	0
2	213	79.842805107276	0
2	217	81.066235259154	0
2	221	82.283826613697	0
2	225	83.589700885206	0
2	229	84.818908938533	0
2	241	90.036221684148	0
2	249	93.343028903863	0
2	257	96.564916963514	0
2	261	97.810918359288	0
2	265	99.18295152506	0
3	4	1.289856038848	1
3	8	2.675816460055	2
3	12	4.070970993643	3
3	16	5.458867399063	4
3	22	7.762683329129	5
3	32	11.968521796038	6
3	36	13.200357410122	7
3	44	16.567578530154	8
3	48	17.832966786876	9
3	52	19.082853987778	10
3	56	20.463690914205	11
3	66	24.665733473045	12
3	72	27.180750465913	13
3	76	28.395873551279	14
3	80	29.79996277287	15
3	84	31.064133690138	16
3	88	32.425533897627	17
3	94	34.777187495026	18
3	98	35.98977493597	19
3	102	37.291918123405	20
3	106	38.507391091455	21
3	110	39.996833139254	22
3	114	41.27061586843	23
3	128	47.604144886892	24
3	136	50.818672689621	25
3	144	54.034886338566	26
3	148	55.260030531773	27
3	152	56.508886236704	28
3	156	57.941777574125	29
3	160	59.201552181807	30
3	166	61.459005422481	31
3	170	62.778616202427	32
3	178	66.088507449182	33
3	182	67.399567193751	34
3	194	72.637463390179	35
3	198	73.882673596201	36
3	204	76.086591911842	37
3	210	78.73204159646	38
3	214	79.942805107276	39
3	218	81.166235259154	40
3	222	82.383826613697	41
3	226	83.689700885206	42
3	230	84.918908938533	43
3	242	90.136221684148	44
3	250	93.443028903863	45
3	258	96.664916963514	46
3	262	97.910918359288	47
3	266	99.28295152506	48

