version 2
run General-0-20230901-07:32:20-6778
attr configname General
attr datetime 20230901-07:32:20
attr experiment General
attr inifile omnetpp.ini
attr iterationvars ""
attr iterationvarsf ""
attr measurement ""
attr network Tictoc1
attr processid 6778
attr repetition 0
attr replication #0
attr resultdir results
attr runnumber 0
attr seedset 0
param Tictoc.tic.delayTime exponential(1s)
param Tictoc.toc.delayTime exponential(0.1s)
param Tictoc.*.lossProbability 0.2

vector 0 Tictoc1.tic transmissionSignal:vector ETV
attr source transmissionSignal
attr title "tx_t, vector"
vector 1 Tictoc1.toc receptionSignal:vector ETV
attr source receptionSignal
attr title "rx_t, vector"
vector 2 Tictoc1.toc transmissionSignal:vector ETV
attr source transmissionSignal
attr title "tx_t, vector"
vector 3 Tictoc1.tic receptionSignal:vector ETV
attr source receptionSignal
attr title "rx_t, vector"
0	1	0.548813502304	0
0	5	4.593615002258	1
0	9	6.56317181581	2
0	13	8.772289517264	3
0	17	10.171840727402	4
0	19	11.171840727402	4
0	23	18.007503754168	5
0	25	19.007503754168	5
0	27	20.007503754168	5
0	29	21.007503754168	5
0	33	22.880073100826	6
0	35	23.880073100826	6
0	39	29.326468473426	7
0	43	30.356993001458	8
0	45	31.356993001458	8
0	49	32.477531834808	9
0	53	36.004117344951	10
0	55	37.004117344951	10
0	59	45.098650304826	11
0	61	46.098650304826	11
0	65	47.697909431568	12
0	69	50.321440912387	13
0	71	51.321440912387	13
0	75	53.368226489906	14
0	77	54.368226489906	14
0	81	57.700397897892	15
0	85	58.982723954411	16
0	87	59.982723954411	16
0	89	60.982723954411	16
0	91	61.982723954411	16
0	95	63.534417819239	17
0	97	64.534417819239	17
0	101	64.78688276037	18
0	103	65.78688276037	18
0	107	67.897089763665	19
0	109	68.897089763665	19
0	113	74.901775511151	20
0	117	76.411781560258	21
0	119	77.411781560258	21
0	123	82.321936924321	22
0	127	82.656623627832	23
0	131	85.084183137562	24
0	135	85.775339156329	25
0	137	86.775339156329	25
0	139	87.775339156329	25
0	143	89.8853584723	26
0	145	90.8853584723	26
0	147	91.8853584723	26
0	151	93.243925409554	27
1	2	0.648813502304	1
1	6	4.693615002258	2
1	10	6.66317181581	3
1	14	8.872289517264	4
1	20	11.271840727402	5
1	30	21.107503754168	6
1	36	23.980073100826	7
1	40	29.426468473426	8
1	46	31.456993001458	9
1	50	32.577531834808	10
1	56	37.104117344951	11
1	62	46.198650304826	12
1	66	47.797909431568	13
1	72	51.421440912387	14
1	78	54.468226489906	15
1	82	57.800397897892	16
1	92	62.082723954411	17
1	98	64.634417819239	18
1	104	65.88688276037	19
1	110	68.997089763665	20
1	114	75.001775511151	21
1	120	77.511781560258	22
1	124	82.421936924321	23
1	128	82.756623627832	24
1	132	85.184183137562	25
1	140	87.875339156329	26
1	148	91.9853584723	27
1	152	93.343925409554	28
2	3	0.774406578109	0
2	7	4.888769535846	0
2	11	6.718276664477	0
2	15	8.920802333636	0
2	21	11.277679194311	0
2	31	21.2747248742	0
2	37	24.029960301728	0
2	41	29.433837008973	0
2	47	31.459035560298	0
2	51	32.892548827676	0
2	57	37.308206566542	0
2	63	46.360050512315	0
2	67	47.949563028967	0
2	73	51.523584099822	0
2	79	54.757668537705	0
2	83	57.811592513955	0
2	93	62.216252972873	0
2	99	64.648945621968	0
2	105	65.903096409315	0
2	111	69.045945468596	0
2	115	75.116289406621	0
2	121	77.569234800932	0
2	125	82.432393046899	0
2	129	82.866514874587	0
2	133	85.202925744164	0
2	141	87.913235352757	0
2	149	91.989276787941	0
2	153	93.789375094172	0
3	4	0.874406578109	1
3	8	4.988769535846	2
3	12	6.818276664477	3
3	16	9.020802333636	4
3	22	11.377679194311	5
3	32	21.3747248742	6
3	38	24.129960301728	7
3	42	29.533837008973	8
3	48	31.559035560298	9
3	52	32.992548827676	10
3	58	37.408206566542	11
3	64	46.460050512315	12
3	68	48.049563028967	13
3	74	51.623584099822	14
3	80	54.857668537705	15
3	84	57.911592513955	16
3	94	62.316252972873	17
3	100	64.748945621968	18
3	106	66.003096409315	19
3	112	69.145945468596	20
3	116	75.216289406621	21
3	122	77.669234800932	22
3	126	82.532393046899	23
3	130	82.966514874587	24
3	134	85.302925744164	25
3	142	88.013235352757	26
3	150	92.089276787941	27
3	154	93.889375094172	28

