version 2
run General-0-20231001-03:32:59-13234
attr configname General
attr datetime 20231001-03:32:59
attr experiment General
attr inifile omnetpp.ini
attr iterationvars ""
attr iterationvarsf ""
attr measurement ""
attr network Multihop
attr processid 13234
attr repetition 0
attr replication #0
attr resultdir results
attr runnumber 0
attr seedset 0
param Multihop.node[*].transmissionTime "uniform(1s, 2s)"
param Multihop.node[*].delayTime "uniform(0.01s, 0.2s)"
param Multihop.node[0].lossProbability 0.2
param Multihop.node[1].lossProbability 0.2
param Multihop.node[2].lossProbability 0.2
param Multihop.node[3].lossProbability 0.2
param Multihop.node[4].lossProbability 0.2
param Multihop.node[5].lossProbability 0.2

vector 0 Multihop.node[0] txVector ETV
vector 1 Multihop.node[1] rxVector ETV
vector 2 Multihop.node[1] txVector ETV
vector 3 Multihop.node[3] rxVector ETV
vector 4 Multihop.node[3] txVector ETV
vector 5 Multihop.node[4] rxVector ETV
vector 6 Multihop.node[4] txVector ETV
vector 7 Multihop.node[5] rxVector ETV
vector 8 Multihop.node[2] rxVector ETV
vector 9 Multihop.node[2] txVector ETV
0	0	0	1
0	1	0.114274565438	2
0	6	0.236915042552	3
0	8	0.330056612448	4
0	13	0.523152537619	5
0	14	0.597257808329	6
0	15	0.730410464875	7
0	18	0.810376356974	8
0	23	0.972216484103	9
0	24	1.092800244439	10
0	29	1.204901157803	11
0	31	1.301569721635	12
0	32	1.315139783259	13
0	36	1.353578007379	14
0	45	1.535024237239	15
0	46	1.65336162467	16
0	50	1.746695912215	17
0	55	1.804821316465	18
0	57	1.943024257694	19
0	58	2.100909899222	20
0	62	2.291328398988	21
0	65	2.485997948788	22
0	67	2.610918597211	23
0	69	2.628364277114	24
0	76	2.69463091498	25
0	83	2.87965086126	26
0	86	2.944638018545	27
0	88	2.985976706056	28
0	90	3.023800641077	29
0	97	3.088611163241	30
0	106	3.155124184056	31
0	113	3.240149349565	32
0	116	3.305264095454	33
0	118	3.334808133847	34
0	125	3.449653222314	35
0	128	3.629118660372	36
0	130	3.658036786488	37
0	133	3.827853411157	38
0	135	3.93443334671	39
0	138	4.092453040164	40
0	139	4.179817866723	41
0	141	4.202959594867	42
0	144	4.350150159845	43
0	149	4.522752795015	44
0	150	4.625767094009	45
0	151	4.700174266135	46
0	152	4.744277417055	47
0	155	4.786764869681	48
0	166	4.930603605556	49
0	168	4.980957800933	50
0	171	5.032520180827	51
0	173	5.090847912552	52
0	175	5.111567396126	53
0	179	5.307084230283	54
0	184	5.458412793328	55
0	187	5.509623219718	56
0	190	5.563174891093	57
0	195	5.731074098047	58
0	200	5.870251194477	59
0	203	5.928500107099	60
0	209	6.073701033197	61
0	210	6.225646132667	62
0	212	6.363867128236	63
0	215	6.407099813959	64
0	218	6.444620888841	65
0	220	6.522187308497	66
0	222	6.677599106459	67
0	228	6.859305856968	68
0	229	6.87242748691	69
0	230	6.884183100234	70
0	240	7.043362153187	71
0	245	7.233732729324	72
0	249	7.404197244107	73
0	252	7.562478307444	74
0	258	7.693978085576	75
0	259	7.72256853794	76
0	267	7.840718581688	77
0	268	7.912527540433	78
0	270	8.103572967956	79
0	272	8.214931446442	80
0	273	8.392674846135	81
0	274	8.450293162889	82
0	279	8.589001409537	83
0	284	8.650363711214	84
0	288	8.760036308234	85
0	290	8.866811300732	86
0	295	9.002218874452	87
0	296	9.123862805435	88
0	298	9.185698965854	89
0	301	9.233139278606	90
0	306	9.332343956622	91
0	310	9.46500230244	92
0	314	9.60446687973	93
0	315	9.650021749378	94
0	317	9.831778700172	95
0	319	9.928591870323	96
0	324	10.025726622059	97
0	327	10.040869729549	98
0	337	10.202184109757	99
0	342	10.331674813255	100
0	343	10.482700029015	101
0	347	10.551027378998	102
0	352	10.721645339038	103
0	353	10.817936194858	104
0	354	10.890009363333	105
0	357	10.944230748445	106
0	359	11.051714973079	107
0	363	11.165187239646	108
0	364	11.268481940386	109
0	367	11.464993479628	110
0	370	11.552713757531	111
0	373	11.632653214036	112
0	378	11.79500208258	113
0	383	11.903290700082	114
0	386	11.998248029487	115
0	390	12.05244715771	116
0	400	12.232890477917	117
0	401	12.294653488487	118
0	406	12.376674298699	119
0	410	12.442960352191	120
0	415	12.573419914296	121
0	416	12.767333372782	122
0	421	12.966269522521	123
0	424	13.048151489717	124
0	425	13.242032477508	125
0	427	13.355940607881	126
0	432	13.478464387301	127
0	437	13.672778651649	128
0	438	13.782523036701	129
0	443	13.935136090305	130
0	445	14.007823864445	131
0	450	14.115189679912	132
0	454	14.253675750813	133
0	457	14.317388683723	134
0	463	14.414830428206	135
0	468	14.597003077967	136
0	471	14.739104379122	137
0	474	14.792250333617	138
0	475	14.805455951984	139
0	485	14.899182509703	140
0	489	15.027608497559	141
0	493	15.114449235629	142
0	498	15.253781710509	143
0	501	15.296988391913	144
0	511	15.417208704431	145
0	514	15.517395621491	146
0	519	15.655186259758	147
0	524	15.788511143303	148
0	526	15.810520590185	149
0	535	15.874480586245	150
0	538	16.008419287624	151
0	544	16.208282105297	152
0	546	16.350949316847	153
0	548	16.389009576685	154
0	549	16.444970900687	155
0	554	16.53710438245	156
0	557	16.65795117778	157
0	563	16.845759272841	158
0	564	16.874238292652	159
0	567	16.978815904439	160
0	569	17.175953232446	161
0	571	17.237464777229	162
0	574	17.338618013247	163
0	575	17.511471747694	164
0	578	17.543761705354	165
0	581	17.577292144946	166
0	590	17.669326568758	167
0	594	17.826729180026	168
0	597	17.937592604058	169
0	600	18.12982963156	170
0	601	18.140059070273	171
0	605	18.226865357077	172
0	612	18.335313820783	173
0	614	18.35005331937	174
0	615	18.457667668983	175
0	617	18.509972676234	176
0	618	18.530443059329	177
0	624	18.687399612451	178
0	625	18.763793268593	179
0	628	18.922274392704	180
0	632	18.998813771948	181
0	638	19.153077437042	182
0	641	19.188139054144	183
0	644	19.29777121722	184
0	646	19.419003310888	185
0	647	19.544711147868	186
0	649	19.664723276663	187
0	654	19.805132065103	188
0	658	19.894097634917	189
0	660	19.974762197637	190
0	664	20.0318223511	191
0	672	20.209151194046	192
0	676	20.260278073637	193
0	679	20.364130061804	194
0	683	20.559378125886	195
0	685	20.717975107261	196
0	687	20.734921695124	197
0	692	20.911694344557	198
0	693	21.098880973773	199
0	697	21.183322392065	200
0	702	21.31486636126	201
0	707	21.411426287618	202
0	709	21.587562272284	203
0	713	21.637924800695	204
0	715	21.675416118431	205
0	717	21.717344196977	206
0	721	21.777567421445	207
0	725	21.85257354847	208
0	729	21.867467275766	209
0	733	21.975723358385	210
0	738	22.112758468528	211
0	742	22.193725560267	212
0	744	22.335615551236	213
0	747	22.480602144554	214
0	749	22.514862987	215
0	756	22.644728489387	216
0	761	22.748188013485	217
0	764	22.796961704632	218
0	767	22.945993100374	219
0	771	23.01107665559	220
0	779	23.160896495978	221
0	784	23.265550613274	222
0	790	23.408032728512	223
0	791	23.555781606393	224
0	793	23.597034404314	225
0	795	23.701532202709	226
0	798	23.784957209345	227
0	804	23.938856396057	228
0	807	24.054238956767	229
0	812	24.247394343587	230
0	814	24.276343603309	231
0	822	24.342999201033	232
0	829	24.48953821535	233
0	830	24.632714548363	234
0	835	24.726462214955	235
0	840	24.854812080579	236
0	842	24.958140278641	237
0	846	25.021361890061	238
0	849	25.181418117053	239
0	850	25.205775763547	240
0	857	25.273568739349	241
0	862	25.403150313881	242
0	863	25.474487925973	243
0	866	25.52810573966	244
0	869	25.560549813444	245
0	874	25.683197064342	246
0	879	25.802274524263	247
0	884	25.922915273619	248
0	885	25.941805713066	249
0	890	25.998104509277	250
0	897	26.185009061416	251
0	902	26.3743407234	252
0	903	26.469880464925	253
0	905	26.647053234976	254
0	911	26.758855599929	255
0	914	26.834431776815	256
0	915	26.846998430447	257
0	924	26.935612532355	258
0	926	26.946621441851	259
0	927	26.972446728619	260
0	929	26.992151069632	261
0	933	27.031036243555	262
0	941	27.211259369692	263
0	942	27.267547838628	264
0	954	27.441161210228	265
0	955	27.568022234822	266
0	960	27.68298565588	267
0	969	27.79159373947	268
0	975	27.864569604509	269
0	977	27.895568840935	270
0	980	28.095187701616	271
0	982	28.175200984721	272
0	983	28.317430888499	273
0	989	28.405793262865	274
0	992	28.436344712552	275
0	999	28.576252737381	276
0	1003	28.655314271963	277
0	1008	28.725458810868	278
0	1012	28.758055942208	279
0	1013	28.771494250193	280
0	1018	28.893705471924	281
0	1020	28.932639261931	282
0	1028	29.076392719981	283
0	1029	29.234480379143	284
0	1035	29.405863141854	285
0	1040	29.54376934307	286
0	1042	29.608245512632	287
0	1047	29.69409776572	288
0	1051	29.760834362277	289
0	1053	29.778658523381	290
0	1055	29.943778519231	291
0	1056	29.963469908825	292
0	1058	30.09263044369	293
0	1061	30.13489614857	294
0	1068	30.242644015673	295
0	1070	30.291331992013	296
0	1074	30.336637173482	297
0	1077	30.353397715821	298
0	1080	30.431121295118	299
0	1082	30.563923839559	300
0	1086	30.612104445149	301
0	1088	30.691234953574	302
0	1092	30.850938946107	303
0	1094	30.883533165095	304
0	1100	31.025345099975	305
0	1106	31.212126492822	306
0	1107	31.228917601904	307
0	1111	31.25751784224	308
0	1119	31.372481509216	309
0	1121	31.560481999919	310
0	1125	31.637055533726	311
0	1132	31.779053873739	312
0	1137	31.940190613212	313
0	1141	32.080832579125	314
0	1144	32.142831312745	315
0	1149	32.300033359592	316
0	1153	32.496999117531	317
0	1154	32.612001833985	318
0	1157	32.669729855495	319
0	1158	32.86639438315	320
0	1162	32.952479604289	321
0	1166	33.014027763302	322
0	1169	33.204390945087	323
0	1172	33.303920231219	324
0	1176	33.370139706479	325
0	1178	33.46928197789	326
0	1183	33.617092061983	327
0	1186	33.681651076865	328
0	1195	33.838982179241	329
0	1196	33.864902537513	330
0	1202	33.97296604108	331
0	1207	34.078420766654	332
0	1208	34.187674890288	333
0	1209	34.209479743568	334
0	1217	34.279905184328	335
0	1219	34.328145870101	336
0	1223	34.526315888486	337
0	1229	34.611600440033	338
0	1230	34.721981239068	339
0	1232	34.897849448922	340
0	1233	34.923103567365	341
0	1234	34.960288467799	342
0	1237	34.979693419706	343
0	1242	35.153162212547	344
0	1245	35.264618017604	345
0	1250	35.393812821431	346
0	1257	35.581493319129	347
0	1260	35.687816806212	348
0	1265	35.848391597848	349
0	1266	35.870518416697	350
0	1272	35.980569382156	351
0	1278	36.140482293733	352
0	1282	36.310647220472	353
0	1284	36.381727077398	354
0	1285	36.489532827922	355
0	1287	36.526216336303	356
0	1288	36.69400684292	357
0	1290	36.715009605911	358
0	1298	36.906752985323	359
0	1303	37.041746790172	360
0	1304	37.075631176404	361
0	1305	37.270519379029	362
0	1307	37.308924101005	363
0	1310	37.354442169872	364
0	1314	37.491212964203	365
0	1316	37.593513990334	366
0	1317	37.722780206437	367
0	1320	37.845069788791	368
0	1324	37.933556153147	369
0	1327	38.110945784833	370
0	1328	38.261850375553	371
0	1333	38.418253748199	372
0	1334	38.505135979621	373
0	1335	38.531657494906	374
0	1344	38.707993245855	375
0	1345	38.778682983184	376
0	1347	38.808976188523	377
0	1353	38.965543276458	378
0	1355	39.136109617816	379
0	1357	39.190514229485	380
0	1362	39.386458582026	381
0	1365	39.494209846284	382
0	1368	39.562854827591	383
0	1373	39.710109216377	384
0	1378	39.882395248708	385
0	1382	40.055143067324	386
0	1385	40.176893025087	387
0	1389	40.267798358556	388
0	1392	40.396085807665	389
0	1394	40.580013259915	390
0	1396	40.764655750781	391
0	1399	40.832656483057	392
0	1401	40.953925828201	393
0	1402	40.974755609451	394
0	1410	41.141945121895	395
0	1411	41.186453377	396
0	1413	41.217775997304	397
0	1421	41.324017017301	398
0	1423	41.512254764823	399
0	1424	41.563580552571	400
0	1425	41.581886531465	401
0	1434	41.679685061903	402
0	1438	41.844651146096	403
0	1439	41.979507956053	404
0	1444	42.133427416119	405
0	1449	42.288424059195	406
0	1451	42.316497511429	407
0	1458	42.449711921409	408
0	1462	42.553074134684	409
0	1466	42.645013125614	410
0	1469	42.701402961759	411
0	1472	42.718821940818	412
0	1475	42.744821365262	413
0	1476	42.82495016438	414
0	1478	42.980351531595	415
0	1480	43.013815623655	416
0	1491	43.130608033322	417
0	1492	43.141312890205	418
0	1494	43.173517648872	419
0	1499	43.2320179066	420
0	1504	43.346855683837	421
0	1505	43.40257421417	422
0	1506	43.42125286022	423
0	1508	43.592536219438	424
0	1512	43.677944213443	425
0	1515	43.787736642584	426
0	1517	43.813021860127	427
0	1520	43.868236643804	428
0	1522	43.8957668704	429
0	1523	44.031559680127	430
0	1524	44.146359043407	431
0	1530	44.239300197521	432
0	1535	44.336526629091	433
0	1540	44.473059013677	434
0	1543	44.531806833514	435
0	1552	44.686102382222	436
0	1557	44.883189378027	437
0	1559	44.920594997059	438
0	1561	44.941809413389	439
0	1575	45.123756053487	440
0	1582	45.267655169123	441
0	1587	45.396723504227	442
0	1588	45.548071690816	443
0	1590	45.74181058221	444
0	1591	45.857386481713	445
0	1593	45.886630488047	446
0	1601	45.993988100318	447
0	1603	46.039586671935	448
0	1606	46.08288902201	449
0	1611	46.190172334071	450
0	1615	46.242678709368	451
0	1620	46.399616162677	452
0	1622	46.425016383385	453
0	1623	46.521388458387	454
0	1624	46.571212977994	455
0	1628	46.647230315102	456
0	1634	46.844683129651	457
0	1636	46.863127373549	458
0	1639	46.915877676419	459
0	1642	46.947578044018	460
0	1643	46.963798243211	461
0	1648	47.049579272078	462
0	1650	47.241502094784	463
0	1652	47.272924881462	464
0	1657	47.41938032111	465
0	1662	47.485872092155	466
0	1663	47.613108783452	467
0	1670	47.791797301524	468
0	1675	47.97839135206	469
0	1676	48.02375608361	470
0	1677	48.035513201993	471
0	1683	48.131361159088	472
0	1684	48.270814937439	473
0	1686	48.300556214144	474
0	1689	48.346424777419	475
0	1691	48.47886023473	476
0	1696	48.658965789829	477
0	1698	48.670144439363	478
0	1707	48.859272527914	479
0	1711	48.938486595923	480
0	1715	48.977268936418	481
0	1718	49.135421088043	482
0	1719	49.219916278602	483
0	1720	49.267430127709	484
0	1722	49.461754993076	485
0	1729	49.658026257284	486
0	1733	49.73304926064	487
0	1735	49.775955975104	488
0	1736	49.791210074627	489
0	1738	49.813162397828	490
0	1747	49.852702310013	491
0	1754	49.893001437278	492
0	1759	50.040987661737	493
0	1760	50.079623539031	494
0	1763	50.120451382636	495
0	1765	50.18136923346	496
0	1769	50.31105058848	497
0	1770	50.443342951521	498
0	1775	50.53350055626	499
0	1780	50.618775622687	500
0	1784	50.779559060154	501
0	1786	50.926686405612	502
0	1790	51.031067845042	503
0	1796	51.129977793256	504
0	1802	51.214565908413	505
0	1804	51.382462822432	506
0	1805	51.452788525792	507
0	1806	51.575949680614	508
0	1807	51.678404838263	509
0	1810	51.819990217143	510
0	1816	51.995048646803	511
0	1823	52.116283157493	512
0	1826	52.175309988327	513
0	1833	52.356393071098	514
0	1838	52.433915236387	515
0	1841	52.496324371274	516
0	1842	52.55017142049	517
0	1845	52.622096968237	518
0	1847	52.646686354563	519
0	1855	52.844619402436	520
0	1856	52.932923696302	521
0	1859	52.970910187757	522
0	1862	53.041673580618	523
0	1867	53.144739641624	524
0	1868	53.315810115745	525
0	1873	53.432475872659	526
0	1879	53.616028067937	527
0	1881	53.66014987868	528
0	1887	53.796959253568	529
0	1890	53.831570219665	530
0	1897	53.979058607642	531
0	1900	54.065048325029	532
0	1901	54.177434956906	533
0	1903	54.209206708646	534
0	1911	54.400830047179	535
0	1913	54.416198816844	536
0	1922	54.570016528016	537
0	1923	54.69146224542	538
0	1929	54.831381001239	539
0	1934	54.946401741066	540
0	1936	54.964257552076	541
0	1941	55.15502560686	542
0	1948	55.335629180746	543
0	1949	55.431495042038	544
0	1954	55.624297798206	545
0	1959	55.764768903803	546
0	1962	55.787452695105	547
0	1973	55.900585923268	548
0	1974	55.983873885289	549
0	1977	56.03713810102	550
0	1985	56.203077610623	551
0	1992	56.384374546813	552
0	1993	56.410333966507	553
0	2001	56.482394660624	554
0	2007	56.654440434909	555
0	2013	56.850826521261	556
0	2014	56.882256290923	557
0	2023	57.058046432478	558
0	2024	57.104195929238	559
0	2028	57.13377604707	560
0	2030	57.198378052268	561
0	2035	57.327207397403	562
0	2038	57.363485679989	563
0	2043	57.416519021887	564
0	2047	57.446042366004	565
0	2053	57.507978810691	566
0	2057	57.661902603011	567
0	2061	57.715551985516	568
0	2063	57.727435379391	569
0	2070	57.760839511861	570
0	2077	57.874642007048	571
0	2078	57.928953377686	572
0	2085	58.110749900672	573
0	2086	58.303449178425	574
0	2087	58.317864137155	575
0	2092	58.417476066926	576
0	2094	58.433230864676	577
0	2096	58.490320208555	578
0	2103	58.633171090412	579
0	2104	58.644218074251	580
0	2111	58.69954561881	581
0	2118	58.877396455938	582
0	2122	59.01055108872	583
0	2127	59.169951694773	584
0	2128	59.261000261507	585
0	2130	59.437490030238	586
0	2132	59.462462477618	587
0	2137	59.584391165694	588
0	2142	59.730536488033	589
0	2147	59.924216659513	590
0	2150	59.949970594523	591
0	2154	60.057099191348	592
0	2159	60.172254773455	593
0	2166	60.349662765518	594
0	2171	60.521414219024	595
0	2176	60.683062036554	596
0	2177	60.73417406856	597
0	2182	60.907917361291	598
0	2186	60.970726489037	599
0	2189	61.068437967935	600
0	2192	61.256862855778	601
0	2193	61.38410419585	602
0	2198	61.483839369098	603
0	2201	61.638973118456	604
0	2208	61.74868534677	605
0	2210	61.780561537815	606
0	2221	61.977344242565	607
0	2222	61.988197350521	608
0	2226	62.011892579245	609
0	2239	62.207384524362	610
0	2244	62.308690485754	611
0	2247	62.338308597328	612
0	2251	62.403956353767	613
0	2253	62.434064399665	614
0	2258	62.48711007874	615
0	2266	62.633154622852	616
0	2270	62.803749842085	617
0	2272	62.898923450292	618
0	2276	63.025105660633	619
0	2278	63.189686179204	620
0	2281	63.312018033141	621
0	2286	63.426559076072	622
0	2287	63.466676898205	623
0	2292	63.554486996184	624
0	2294	63.57811655448	625
0	2299	63.610282946568	626
0	2301	63.706325506683	627
0	2307	63.893150042201	628
0	2311	63.975725117688	629
0	2313	64.017399003672	630
0	2322	64.166914499212	631
0	2327	64.308696929676	632
0	2330	64.344478570245	633
0	2336	64.421555484684	634
0	2341	64.514135663078	635
0	2344	64.587260752776	636
0	2349	64.783993389115	637
0	2352	64.972777821938	638
0	2353	64.996685309174	639
0	2355	65.035967570947	640
0	2368	65.162328368049	641
0	2374	65.343280247986	642
0	2377	65.530244840272	643
0	2381	65.579455711742	644
0	2387	65.648202158157	645
0	2390	65.675518075552	646
0	2392	65.691400938612	647
0	2400	65.73909822007	648
0	2404	65.774769139076	649
0	2409	65.841610773653	650
0	2416	66.039559776427	651
0	2418	66.067270145894	652
0	2425	66.24193565504	653
0	2426	66.252543921027	654
0	2433	66.315453023243	655
0	2439	66.44916883461	656
0	2444	66.552386349198	657
0	2447	66.606919110937	658
0	2456	66.713218473189	659
0	2459	66.913208776391	660
0	2462	67.03144741788	661
0	2470	67.202250413007	662
0	2471	67.232741852628	663
0	2473	67.316573801266	664
0	2480	67.469493857747	665
0	2483	67.520040868937	666
0	2485	67.680287710202	667
0	2488	67.753146695066	668
0	2491	67.805280380645	669
0	2493	67.829299907156	670
0	2499	67.959548118243	671
0	2503	68.14861088642	672
0	2508	68.342951344646	673
0	2513	68.527762042311	674
0	2518	68.660971029574	675
0	2520	68.686447479216	676
0	2524	68.808290001968	677
0	2529	68.928047590492	678
0	2530	69.115614061753	679
0	2531	69.300708095901	680
0	2532	69.312192036663	681
0	2539	69.370253888238	682
0	2547	69.542113718481	683
0	2548	69.578619705569	684
0	2553	69.74154957111	685
0	2555	69.882644644731	686
0	2557	70.058948210187	687
0	2558	70.248878857594	688
0	2562	70.406742605956	689
0	2564	70.421190549955	690
0	2568	70.544560377549	691
0	2570	70.573016696323	692
0	2573	70.734370811872	693
0	2578	70.813729086068	694
0	2581	70.939237078863	695
0	2582	70.953976748119	696
0	2588	71.024238394051	697
0	2593	71.140316412744	698
0	2598	71.254081634867	699
0	2599	71.282415720778	700
0	2605	71.454211701201	701
0	2606	71.486003281527	702
0	2611	71.6106393253	703
0	2614	71.638366127304	704
0	2618	71.830034596113	705
0	2620	72.013809107506	706
0	2621	72.040089424072	707
0	2629	72.188749553271	708
0	2632	72.294206738866	709
0	2634	72.367044482453	710
0	2636	72.429535612851	711
0	2639	72.545925621573	712
0	2648	72.713832461851	713
0	2650	72.749528687369	714
0	2654	72.819679726005	715
0	2655	72.907833829943	716
0	2656	73.059873339871	717
0	2658	73.147490072427	718
0	2663	73.262100066375	719
0	2667	73.352756929533	720
0	2671	73.521687828815	721
0	2674	73.641764496169	722
0	2678	73.812142301502	723
0	2679	73.874362736551	724
0	2682	74.034275442864	725
0	2687	74.228581338654	726
0	2688	74.329253610097	727
0	2690	74.447636580888	728
0	2695	74.641736096488	729
0	2697	74.751221362257	730
0	2698	74.835242442361	731
0	2703	74.907352301951	732
0	2705	74.928999431424	733
0	2709	74.977450168684	734
0	2713	75.018611002277	735
0	2717	75.186558697379	736
0	2718	75.380629036188	737
0	2719	75.414276552549	738
0	2720	75.439604586244	739
0	2722	75.624610874273	740
0	2725	75.671580033116	741
0	2727	75.688204070365	742
0	2735	75.763959522883	743
0	2740	75.800809192683	744
0	2743	75.970083623915	745
0	2749	76.05609196286	746
0	2755	76.155998549264	747
0	2766	76.302223813905	748
0	2771	76.378976118326	749
0	2777	76.512904934807	750
0	2779	76.605422403522	751
0	2780	76.639568771446	752
0	2784	76.731701892627	753
0	2786	76.886621282397	754
0	2787	76.903373592564	755
0	2790	76.99322286676	756
0	2791	77.017308193404	757
0	2794	77.059270612931	758
0	2799	77.112942022731	759
0	2800	77.312833045156	760
0	2804	77.461569857524	761
0	2805	77.637577560247	762
0	2808	77.68490762571	763
0	2815	77.785462371238	764
0	2818	77.980430934256	765
0	2819	78.046136520455	766
0	2823	78.116231992891	767
0	2825	78.310515087933	768
0	2827	78.35569966772	769
0	2828	78.370993774867	770
0	2832	78.401650298849	771
0	2839	78.512036851411	772
0	2841	78.541019384611	773
0	2843	78.562646900007	774
0	2858	78.747491272165	775
0	2860	78.903479890764	776
0	2863	78.974424396543	777
0	2869	79.146042734062	778
0	2872	79.317456055774	779
0	2874	79.495892034496	780
0	2878	79.588435947785	781
0	2882	79.672970784501	782
0	2887	79.789815204177	783
0	2888	79.863532032479	784
0	2891	79.900209332878	785
0	2894	80.003294772572	786
0	2905	80.200753013642	787
0	2907	80.221638394889	788
0	2915	80.366405296679	789
0	2920	80.544326693001	790
0	2925	80.690591888469	791
0	2928	80.828157256287	792
0	2933	80.927707524418	793
0	2935	80.953214163233	794
0	2941	81.099402155694	795
0	2946	81.199110979037	796
0	2950	81.288680791054	797
0	2956	81.440517853666	798
0	2959	81.505337604592	799
0	2961	81.519416982723	800
0	2965	81.632790498483	801
0	2966	81.713382036503	802
0	2970	81.789227838934	803
0	2972	81.963045389141	804
0	2977	82.058600577762	805
0	2981	82.104150402263	806
0	2983	82.114676883487	807
0	2988	82.167555598624	808
0	2997	82.318840476997	809
0	3001	82.485564195254	810
0	3002	82.671058048761	811
0	3005	82.730220677235	812
0	3009	82.807334844786	813
0	3012	82.948126230225	814
0	3014	83.105071952556	815
0	3017	83.159135620763	816
0	3019	83.169710654413	817
0	3024	83.292498863646	818
0	3026	83.315681373798	819
0	3034	83.494236927353	820
0	3040	83.641358882521	821
0	3043	83.688837520975	822
0	3045	83.721619198796	823
0	3049	83.753605648322	824
0	3052	83.8568727816	825
0	3054	83.883366419625	826
0	3056	83.898025723932	827
0	3063	83.927074783164	828
0	3065	84.089805402084	829
0	3067	84.250862061278	830
0	3068	84.320259313787	831
0	3072	84.383207004081	832
0	3077	84.540687190573	833
0	3081	84.610357203143	834
0	3088	84.786308665836	835
0	3089	84.798848802079	836
0	3092	84.873127320355	837
0	3097	84.954828971622	838
0	3101	85.141917302671	839
0	3106	85.324595457983	840
0	3109	85.398572512399	841
0	3114	85.517452507377	842
0	3119	85.665055941517	843
0	3123	85.832738739079	844
0	3127	85.891218722746	845
0	3130	85.999821849178	846
0	3132	86.139412078959	847
0	3134	86.169697921	848
0	3138	86.199601231293	849
0	3141	86.251682532787	850
0	3144	86.424007626363	851
0	3150	86.598818008493	852
0	3154	86.793696793284	853
0	3156	86.908937020571	854
0	3163	87.066715840675	855
0	3169	87.122156074893	856
0	3172	87.230830985641	857
0	3174	87.42623368626	858
0	3180	87.510711657954	859
0	3183	87.602075777365	860
0	3184	87.731088055981	861
0	3189	87.899944041254	862
0	3190	87.926979997865	863
0	3197	87.983844077356	864
0	3209	88.147477349045	865
0	3212	88.197227341502	866
0	3215	88.269679855983	867
0	3218	88.400501410923	868
0	3220	88.4380278703	869
0	3221	88.513132293943	870
0	3223	88.546381688615	871
0	3226	88.567412389648	872
0	3233	88.62757017461	873
0	3235	88.814648468451	874
0	3238	88.858743104076	875
0	3240	89.045499217397	876
0	3242	89.224719116784	877
0	3243	89.392387831147	878
0	3248	89.581307474928	879
0	3253	89.773212435862	880
0	3258	89.944677785588	881
0	3263	90.116310502213	882
0	3266	90.165873102547	883
0	3273	90.294464288455	884
0	3275	90.486205290615	885
0	3276	90.611612537211	886
0	3278	90.662617076839	887
0	3283	90.719287786704	888
0	3289	90.817730119328	889
0	3290	90.830713220476	890
0	3293	90.849276487031	891
0	3298	90.882180718749	892
0	3307	91.057042632235	893
0	3310	91.14149236852	894
0	3313	91.277549235976	895
0	3315	91.441948202789	896
0	3322	91.615050653155	897
0	3326	91.772293033526	898
0	3330	91.930799522144	899
0	3336	92.034329144079	900
0	3341	92.126239719551	901
0	3346	92.226240578126	902
0	3350	92.277653016399	903
0	3359	92.407689202726	904
0	3360	92.448428644829	905
0	3362	92.5298429395	906
0	3364	92.550474009982	907
0	3368	92.728083818485	908
0	3372	92.915880186674	909
0	3379	93.034729678524	910
0	3381	93.045972103912	911
0	3387	93.199942942094	912
0	3389	93.329352266712	913
0	3390	93.500653265806	914
0	3391	93.554227181594	915
0	3394	93.73845822165	916
0	3396	93.770263119021	917
0	3398	93.843681965775	918
0	3403	93.986847687328	919
0	3404	94.022694527369	920
0	3410	94.181085108469	921
0	3411	94.218818422267	922
0	3412	94.358299971972	923
0	3413	94.452320195396	924
0	3415	94.479022938308	925
0	3418	94.514378803684	926
0	3427	94.584570799244	927
0	3430	94.625421924728	928
0	3438	94.824163743685	929
0	3443	94.932722031944	930
0	3444	94.979338581236	931
0	3445	95.148634946332	932
0	3447	95.167517766831	933
0	3448	95.290218664759	934
0	3450	95.483607868687	935
0	3454	95.56538202048	936
0	3459	95.725891232111	937
0	3461	95.843529704418	938
0	3464	95.919975019586	939
0	3466	95.981483719037	940
0	3470	96.063830929925	941
0	3476	96.238112688968	942
0	3481	96.344703619124	943
0	3488	96.511988101502	944
0	3490	96.536900525545	945
0	3492	96.591521724796	946
0	3493	96.711888319981	947
0	3495	96.805324021008	948
0	3497	96.879384641511	949
0	3498	97.000786844116	950
0	3501	97.141438916115	951
0	3504	97.182664815051	952
0	3509	97.327795842205	953
0	3514	97.489533403501	954
0	3519	97.559352624893	955
0	3521	97.746928073689	956
0	3522	97.76487208713	957
0	3530	97.933601982223	958
0	3534	97.980567718872	959
0	3536	98.025016858533	960
0	3540	98.213177335453	961
0	3545	98.396815935161	962
0	3550	98.488712523297	963
0	3552	98.67417691322	964
0	3558	98.753734432312	965
0	3563	98.945097234447	966
0	3569	99.047894279417	967
0	3570	99.067720635378	968
0	3576	99.212928308673	969
0	3578	99.34313134122	970
0	3581	99.457643914503	971
0	3582	99.591707642717	972
0	3583	99.768227006286	973
0	3584	99.781148237654	974
0	3593	99.913855802694	975
0	3598	100.052797044688	976
0	3603	100.111361492691	977
0	3608	100.194649725093	978
0	3613	100.26625822373	979
0	3616	100.312567451499	980
0	3624	100.424025144892	981
0	3627	100.518714193979	982
0	3632	100.59290244604	983
0	3638	100.772402449055	984
0	3640	100.968443039607	985
0	3645	101.132797593284	986
0	3646	101.166622542905	987
0	3651	101.239475927659	988
0	3654	101.427156007708	989
0	3659	101.575909821202	990
0	3660	101.75352679141	991
0	3663	101.788550847991	992
0	3667	101.983696646349	993
0	3669	101.997227627529	994
0	3677	102.071466838774	995
0	3682	102.181909582306	996
0	3688	102.352377095484	997
0	3693	102.514525411065	998
0	3697	102.567387448101	999
0	3702	102.686819689252	1000
0	3706	102.765086932673	1001
0	3709	102.802494114583	1002
0	3712	102.875578497168	1003
0	3718	103.009488047414	1004
0	3720	103.079887083945	1005
0	3722	103.232017612529	1006
0	3723	103.368648492051	1007
0	3724	103.381129499047	1008
0	3728	103.577951049338	1009
0	3732	103.647715047727	1010
0	3739	103.817503782218	1011
0	3742	103.94955813591	1012
0	3746	104.032032802776	1013
0	3751	104.167781511243	1014
0	3752	104.180011452849	1015
0	3756	104.358567331862	1016
0	3757	104.533281491509	1017
0	3760	104.638743525791	1018
0	3768	104.737697078608	1019
0	3769	104.888324044479	1020
0	3773	105.046029734287	1021
0	3779	105.178092201239	1022
0	3783	105.29074167926	1023
0	3789	105.415369734523	1024
0	3790	105.429281926245	1025
0	3791	105.440832852271	1026
0	3795	105.473563453412	1027
0	3797	105.557623828646	1028
0	3802	105.719727289287	1029
0	3807	105.790048476231	1030
0	3809	105.808533652235	1031
0	3812	105.824127305356	1032
0	3817	105.912515234364	1033
0	3818	105.983446109054	1034
0	3821	106.018663125973	1035
0	3824	106.034810182041	1036
0	3825	106.15711569846	1037
0	3827	106.309933957652	1038
0	3828	106.468250623766	1039
0	3830	106.606365177561	1040
0	3833	106.753099368575	1041
0	3834	106.770341385905	1042
0	3839	106.94282907918	1043
0	3840	106.971614715849	1044
0	3845	107.022231261065	1045
0	3850	107.16096334261	1046
0	3855	107.282360914532	1047
0	3858	107.351802560846	1048
0	3861	107.503453871275	1049
0	3863	107.613101799914	1050
0	3866	107.696398139605	1051
0	3870	107.747765827649	1052
0	3875	107.896878467966	1053
0	3878	108.030319548389	1054
0	3882	108.08251722212	1055
0	3892	108.209874527264	1056
0	3900	108.401199788165	1057
0	3901	108.411866820294	1058
0	3907	108.604235048108	1059
0	3909	108.661455742973	1060
0	3918	108.835420148019	1061
0	3920	108.883765213774	1062
0	3923	108.971635451524	1063
0	3925	109.118710588522	1064
0	3928	109.258881396367	1065
0	3929	109.367602222746	1066
0	3931	109.557031143264	1067
0	3936	109.734922949039	1068
0	3940	109.874920141392	1069
0	3945	110.045413732324	1070
0	3946	110.058511339801	1071
0	3956	110.179365907142	1072
0	3960	110.329847835021	1073
0	3961	110.42774046267	1074
0	3967	110.593088778945	1075
0	3975	110.773615433432	1076
0	3976	110.942874492153	1077
0	3978	111.038649678074	1078
0	3982	111.160334796593	1079
0	3987	111.345925581804	1080
0	3990	111.401576911478	1081
0	3991	111.416115696872	1082
0	3998	111.528244164294	1083
0	4001	111.690217027584	1084
0	4003	111.722956052403	1085
0	4005	111.73354346123	1086
0	4009	111.754161438953	1087
0	4017	111.797856197755	1088
0	4023	111.973641190072	1089
0	4025	112.073525466723	1090
0	4029	112.177766644961	1091
0	4030	112.205041167831	1092
0	4034	112.353142835621	1093
0	4038	112.436307989245	1094
0	4040	112.594036155937	1095
0	4042	112.66869642304	1096
0	4046	112.721663650584	1097
0	4048	112.904441121798	1098
0	4052	113.003100702695	1099
0	4056	113.061571284851	1100
0	4060	113.20752437629	1101
0	4062	113.383565424732	1102
0	4064	113.405760457064	1103
0	4077	113.590609650791	1104
0	4079	113.621592614909	1105
0	4088	113.797810224506	1106
0	4092	113.936263097885	1107
0	4097	114.063290103496	1108
0	4098	114.085797072727	1109
0	4099	114.145536009254	1110
0	4104	114.314911341075	1111
0	4106	114.43307948809	1112
0	4108	114.575120308887	1113
0	4112	114.635255043068	1114
0	4115	114.833378705391	1115
0	4119	114.911291173731	1116
0	4121	114.993233843713	1117
0	4124	115.029577050346	1118
0	4128	115.201434996854	1119
0	4131	115.342401276126	1120
0	4132	115.42683911863	1121
0	4133	115.608923037052	1122
0	4134	115.623926623405	1123
0	4135	115.649644086144	1124
0	4136	115.815455930258	1125
0	4139	115.860815489876	1126
0	4144	116.057879844321	1127
0	4148	116.164744715687	1128
0	4151	116.238175261133	1129
0	4156	116.431052596784	1130
0	4159	116.518610553155	1131
0	4163	116.586506247234	1132
0	4165	116.609648750867	1133
0	4170	116.651722459174	1134
0	4172	116.676563690892	1135
0	4178	116.753761163881	1136
0	4183	116.913322292667	1137
0	4184	116.993773231519	1138
0	4187	117.178328972634	1139
0	4192	117.261488338623	1140
0	4195	117.315182115552	1141
0	4203	117.501441684666	1142
0	4204	117.679877972699	1143
0	4206	117.720595126018	1144
0	4214	117.916786372942	1145
0	4218	118.035888365389	1146
0	4221	118.090751910844	1147
0	4227	118.269476442927	1148
0	4228	118.338944690771	1149
0	4234	118.516937986471	1150
0	4236	118.541757347584	1151
0	4243	118.605375621552	1152
0	4249	118.805208484822	1153
0	4250	118.817101552315	1154
0	4255	118.843817592453	1155
0	4260	118.87979679688	1156
0	4270	119.026803766048	1157
0	4275	119.192337033934	1158
0	4276	119.20260914361	1159
0	4282	119.337432184228	1160
0	4283	119.487944320833	1161
0	4289	119.632846291134	1162
0	4293	119.690089756445	1163
0	4298	119.785221698418	1164
0	4304	119.927075105238	1165
0	4306	119.980946784614	1166
0	4311	120.070846754337	1167
0	4312	120.212984680737	1168
0	4313	120.230940337927	1169
0	4315	120.28567158637	1170
0	4319	120.337485094605	1171
0	4323	120.529617784858	1172
0	4326	120.583861912015	1173
0	4329	120.621161310816	1174
0	4333	120.685886407754	1175
0	4336	120.71039497963	1176
0	4340	120.774711207876	1177
0	4344	120.958947464368	1178
0	4347	120.989488886004	1179
0	4352	121.051147880359	1180
0	4355	121.1007625602	1181
0	4357	121.18580896243	1182
0	4359	121.233763765921	1183
0	4360	121.336636086588	1184
0	4361	121.519065496607	1185
0	4366	121.634486977842	1186
0	4368	121.671999541411	1187
0	4373	121.820024829548	1188
0	4378	122.002981102873	1189
0	4381	122.111237622119	1190
0	4387	122.286696701261	1191
0	4392	122.476889184552	1192
0	4395	122.509815523016	1193
0	4403	122.6785906093	1194
0	4404	122.807186459113	1195
0	4411	122.94322815189	1196
0	4413	122.964711543602	1197
0	4414	123.073516068781	1198
0	4419	123.18723769046	1199
0	4422	123.247736153545	1200
0	4426	123.401982510724	1201
0	4428	123.422826568625	1202
0	4432	123.577175371531	1203
0	4434	123.76892623554	1204
0	4437	123.800593392744	1205
0	4446	123.89642146799	1206
0	4452	123.979945275865	1207
0	4456	124.179489296945	1208
0	4461	124.259020305106	1209
0	4465	124.336598408723	1210
0	4470	124.53321577125	1211
0	4472	124.643783375195	1212
0	4474	124.761452484185	1213
0	4476	124.901526117505	1214
0	4478	124.927044030727	1215
0	4484	125.056470008142	1216
0	4485	125.179558408646	1217
0	4487	125.343411053174	1218
0	4493	125.497192564846	1219
0	4499	125.582291906212	1220
0	4501	125.603177408494	1221
0	4507	125.765429150112	1222
0	4513	125.877350195897	1223
0	4517	125.977116663201	1224
0	4520	126.065511364046	1225
0	4528	126.23798075317	1226
0	4530	126.421107306455	1227
0	4533	126.540795256773	1228
0	4534	126.558640195718	1229
0	4539	126.641149255766	1230
0	4546	126.777633332384	1231
0	4549	126.833357936437	1232
0	4557	126.974645364294	1233
0	4565	127.133100133413	1234
0	4566	127.175524816153	1235
0	4572	127.329350777414	1236
0	4573	127.462599275246	1237
0	4578	127.624483008658	1238
0	4581	127.654942145733	1239
0	4585	127.813263586258	1240
0	4586	127.841092846067	1241
0	4590	127.997590769803	1242
0	4592	128.041141537236	1243
0	4599	128.178011174301	1244
0	4601	128.233502378586	1245
0	4607	128.421209455208	1246
0	4612	128.519439189617	1247
0	4613	128.605450658343	1248
0	4618	128.782394890009	1249
0	4621	128.843935507402	1250
0	4626	128.944637896352	1251
0	4629	128.971469552525	1252
0	4634	129.093569865258	1253
0	4635	129.278551094817	1254
0	4639	129.328845959975	1255
0	4646	129.450006244244	1256
0	4647	129.646796018464	1257
0	4652	129.820951962	1258
0	4653	129.841974898145	1259
0	4659	129.941443838756	1260
0	4660	130.100796438145	1261
0	4663	130.266609388603	1262
0	4664	130.301208598101	1263
0	4665	130.314135822942	1264
0	4670	130.397616866424	1265
0	4675	130.518304953922	1266
0	4676	130.654785376408	1267
0	4681	130.760170036394	1268
0	4685	130.837436026868	1269
0	4686	130.849887271365	1270
0	4694	131.005561209523	1271
0	4697	131.165968588297	1272
0	4702	131.303670480272	1273
0	4707	131.441153072223	1274
0	4709	131.543643813892	1275
0	4712	131.594384636467	1276
0	4716	131.694970041372	1277
0	4719	131.780600305042	1278
0	4721	131.806678250691	1279
0	4725	131.87679272451	1280
0	4727	131.904536147549	1281
0	4732	132.003654249935	1282
0	4734	132.014172164682	1283
0	4740	132.071369426463	1284
0	4748	132.167172088805	1285
0	4752	132.210320307627	1286
0	4754	132.240482718845	1287
0	4755	132.309664626369	1288
0	4761	132.45018431695	1289
0	4764	132.479816696372	1290
0	4767	132.562018981765	1291
0	4774	132.742598132922	1292
0	4779	132.936763951727	1293
0	4784	133.071958151655	1294
0	4786	133.109094812735	1295
0	4795	133.302324960369	1296
0	4797	133.323500922662	1297
0	4806	133.51013216252	1298
0	4808	133.531769596124	1299
0	4811	133.580953333618	1300
0	4814	133.668438893776	1301
0	4819	133.77118488153	1302
0	4826	133.930103904077	1303
0	4827	133.941060962112	1304
0	4828	133.963084139706	1305
0	4832	134.151907110618	1306
0	4838	134.290094306412	1307
0	4840	134.305815288903	1308
0	4849	134.456333367975	1309
0	4851	134.498942060856	1310
0	4852	134.673331206063	1311
0	4857	134.740265736882	1312
0	4858	134.895457240973	1313
0	4863	134.984555334296	1314
0	4864	135.157519219018	1315
0	4867	135.219978357419	1316
0	4874	135.382574565644	1317
0	4877	135.408115250064	1318
0	4886	135.604397490738	1319
0	4889	135.661455882076	1320
0	4894	135.855729394188	1321
0	4899	136.029932594645	1322
0	4908	136.22570341756	1323
0	4913	136.325366625294	1324
0	4916	136.469695912743	1325
0	4917	136.611701379203	1326
0	4920	136.80133120725	1327
0	4928	136.931709214585	1328
0	4929	137.084163177212	1329
0	4932	137.107079555235	1330
0	4936	137.154642634889	1331
0	4938	137.200450333645	1332
0	4940	137.374923901692	1333
0	4942	137.502523025017	1334
0	4947	137.681461153718	1335
0	4948	137.692808714936	1336
0	4950	137.724012757129	1337
0	4955	137.775872429345	1338
0	4958	137.956939224811	1339
0	4961	138.02439763682	1340
0	4970	138.222555810262	1341
0	4973	138.310692057735	1342
0	4974	138.430665679895	1343
0	4981	138.628184427644	1344
0	4983	138.775510379779	1345
0	4988	138.92903214691	1346
0	4991	139.053853879075	1347
0	4993	139.073333447094	1348
0	4998	139.242664234171	1349
0	5003	139.350092790814	1350
0	5004	139.394095315331	1351
0	5008	139.54760175932	1352
0	5012	139.611857630012	1353
0	5018	139.745070821682	1354
0	5023	139.918584592666	1355
0	5029	140.007440341688	1356
0	5030	140.091131537343	1357
0	5035	140.175613188297	1358
0	5040	140.258789348468	1359
0	5045	140.381130720704	1360
0	5050	140.444123850098	1361
0	5054	140.60546357911	1362
0	5055	140.798843505747	1363
0	5056	140.810818642894	1364
0	5062	140.89809550157	1365
0	5065	141.079791613148	1366
0	5067	141.114073489971	1367
0	5069	141.180996048133	1368
0	5075	141.227266103664	1369
0	5079	141.255847964423	1370
0	5081	141.290977411998	1371
0	5085	141.335265437466	1372
0	5091	141.389706603201	1373
0	5093	141.412924710688	1374
0	5095	141.540405767026	1375
0	5096	141.587741618884	1376
0	5100	141.720864780968	1377
0	5106	141.888003780366	1378
0	5112	142.054126720595	1379
0	5117	142.213463565524	1380
0	5119	142.34367230099	1381
0	5125	142.540993719032	1382
0	5132	142.638183745484	1383
0	5136	142.710400339969	1384
0	5142	142.866570315148	1385
0	5146	143.029541681296	1386
0	5152	143.174317987339	1387
0	5154	143.211896205366	1388
0	5155	143.225308767204	1389
0	5156	143.356120975223	1390
0	5159	143.404177640812	1391
0	5164	143.514769208651	1392
0	5170	143.626258235561	1393
0	5176	143.775117753384	1394
0	5177	143.89343466671	1395
0	5181	143.949906016882	1396
0	5182	144.04337950453	1397
0	5183	144.059509022469	1398
0	5190	144.161411379115	1399
0	5191	144.360688735841	1400
0	5194	144.387783411879	1401
0	5199	144.581863159985	1402
0	5204	144.651213065594	1403
0	5210	144.714738186343	1404
0	5216	144.899325403156	1405
0	5221	145.069590567005	1406
0	5226	145.257107235679	1407
0	5229	145.391099643411	1408
0	5234	145.441175579701	1409
0	5239	145.487487852934	1410
0	5241	145.512025664993	1411
0	5247	145.632114371494	1412
0	5249	145.749938069731	1413
0	5250	145.767493728045	1414
0	5256	145.858910832379	1415
0	5258	145.885041682615	1416
0	5265	145.944980396661	1417
0	5269	146.01289975656	1418
0	5274	146.089756325768	1419
0	5277	146.228688008765	1420
0	5283	146.334426087677	1421
0	5290	146.432178504123	1422
0	5293	146.470281621784	1423
0	5299	146.551950700919	1424
0	5300	146.563004135783	1425
0	5301	146.735706377409	1426
0	5306	146.856265852552	1427
0	5309	146.892946638272	1428
0	5315	146.988715629748	1429
0	5316	147.167891414427	1430
0	5319	147.24354262963	1431
0	5325	147.325502331483	1432
0	5330	147.400564700263	1433
0	5332	147.597593317449	1434
0	5337	147.788312785922	1435
0	5340	147.836085583908	1436
0	5346	148.013796514455	1437
0	5349	148.172340393367	1438
0	5353	148.350774204878	1439
0	5356	148.480229685956	1440
0	5359	148.608563843968	1441
0	5360	148.623079788843	1442
0	5363	148.734962136708	1443
0	5367	148.823758972718	1444
0	5373	148.897567947563	1445
0	5375	148.948862562909	1446
0	5379	148.98316510167	1447
0	5382	149.126979034194	1448
0	5386	149.226644783656	1449
0	5388	149.241926194902	1450
0	5394	149.339644611485	1451
0	5399	149.432830793366	1452
0	5405	149.584673403268	1453
0	5407	149.689767203819	1454
0	5412	149.847504211174	1455
0	5417	149.976899662014	1456
0	5423	150.134251667027	1457
0	5424	150.328555995825	1458
0	5429	150.495340636376	1459
0	5433	150.627912486767	1460
0	5434	150.695374444128	1461
0	5438	150.883233720889	1462
0	5443	150.983022849239	1463
0	5448	151.104412202836	1464
0	5450	151.223173202938	1465
0	5455	151.386558453551	1466
0	5457	151.453351494738	1467
0	5462	151.568870768191	1468
0	5467	151.678251158602	1469
0	5469	151.700097589153	1470
0	5477	151.765126424572	1471
0	5481	151.91330132498	1472
0	5487	152.08806176314	1473
0	5493	152.244415832468	1474
0	5494	152.261946351755	1475
0	5500	152.363493645553	1476
0	5502	152.499842661534	1477
0	5506	152.559169468687	1478
0	5511	152.669692183275	1479
0	5513	152.70806159555	1480
0	5514	152.770230693447	1481
0	5521	152.968864489349	1482
0	5522	153.065182011109	1483
0	5523	153.25153370332	1484
0	5529	153.379430082515	1485
0	5532	153.419620404821	1486
0	5535	153.500540531343	1487
0	5537	153.572105861209	1488
0	5542	153.725826379895	1489
0	5544	153.833017934839	1490
0	5546	153.894055806767	1491
0	5548	153.9064514798	1492
0	5553	154.053451497083	1493
0	5558	154.113717681874	1494
0	5564	154.25888116415	1495
0	5568	154.368579559916	1496
0	5574	154.472465491542	1497
0	5575	154.521704042794	1498
0	5577	154.589946084163	1499
0	5580	154.789011677663	1500
0	5582	154.856237423589	1501
0	5591	155.040099079997	1502
0	5592	155.083188049776	1503
0	5595	155.111601714044	1504
0	5601	155.153427147925	1505
0	5610	155.211730090987	1506
0	5612	155.241358854763	1507
0	5614	155.303385235827	1508
0	5618	155.404559342939	1509
0	5623	155.577221637148	1510
0	5626	155.620011390304	1511
0	5628	155.695299500842	1512
0	5631	155.838148581777	1513
0	5632	155.891915534302	1514
0	5638	155.98406310851	1515
0	5640	156.070401495274	1516
0	5641	156.218646258307	1517
0	5642	156.348816351239	1518
0	5645	156.385726004872	1519
0	5651	156.427690474159	1520
0	5655	156.539157851123	1521
0	5658	156.599392306911	1522
0	5660	156.638697297193	1523
0	5662	156.740181656274	1524
0	5665	156.837795101857	1525
0	5667	156.956483806519	1526
0	5671	157.023528501902	1527
0	5679	157.165532700064	1528
0	5682	157.299478279805	1529
0	5684	157.343557897619	1530
0	5690	157.445001420457	1531
0	5693	157.609709126085	1532
0	5696	157.684325602876	1533
0	5700	157.738438824389	1534
0	5709	157.897149447509	1535
0	5710	157.976379455467	1536
0	5714	158.091052855087	1537
0	5718	158.135907785638	1538
0	5720	158.244263627775	1539
0	5724	158.36383539077	1540
0	5728	158.472545785693	1541
0	5732	158.666134903746	1542
0	5735	158.84210918997	1543
0	5738	158.928669173718	1544
0	5741	159.004223276284	1545
0	5742	159.073705420555	1546
0	5744	159.103483936084	1547
0	5750	159.279378850188	1548
0	5751	159.321577768077	1549
0	5754	159.352956116756	1550
0	5761	159.546821518324	1551
0	5762	159.64760299291	1552
0	5770	159.795589112968	1553
0	5772	159.955678606669	1554
0	5777	160.075412865183	1555
0	5781	160.230781991253	1556
0	5786	160.347778213813	1557
0	5789	160.403212438235	1558
0	5791	160.58017339047	1559
0	5793	160.607151235437	1560
0	5795	160.744737201712	1561
0	5798	160.905686635237	1562
0	5799	160.973571023722	1563
0	5803	161.139328646068	1564
0	5804	161.153329476229	1565
0	5805	161.192331665916	1566
0	5807	161.289710438036	1567
0	5810	161.355448712845	1568
0	5812	161.481779195537	1569
0	5813	161.601431189397	1570
0	5816	161.646701434621	1571
0	5821	161.821103903906	1572
0	5822	161.831494687866	1573
0	5824	161.869884186236	1574
0	5825	162.023926815414	1575
0	5827	162.144661776335	1576
0	5829	162.206675411465	1577
0	5836	162.394892956591	1578
0	5841	162.517691868811	1579
0	5842	162.692927644671	1580
0	5844	162.729857711582	1581
0	5852	162.839154975763	1582
0	5857	162.887212314519	1583
0	5865	162.961538102147	1584
0	5866	163.101015141364	1585
0	5870	163.156634427062	1586
0	5878	163.342504680247	1587
0	5882	163.45456848728	1588
0	5883	163.489993010375	1589
0	5888	163.600830048183	1590
0	5892	163.675347672021	1591
0	5894	163.712696455892	1592
0	5897	163.770654187559	1593
0	5898	163.851391380378	1594
0	5900	164.01505408548	1595
0	5901	164.18514463738	1596
0	5908	164.361201222012	1597
0	5913	164.424403037538	1598
0	5916	164.551687229152	1599
0	5918	164.600445779639	1600
0	5919	164.78406934384	1601
0	5921	164.919889758145	1602
0	5926	165.017896514819	1603
0	5931	165.116893147135	1604
0	5936	165.228502388778	1605
0	5937	165.350172256927	1606
0	5938	165.381786947853	1607
0	5940	165.516261724091	1608
0	5941	165.558382864678	1609
0	5944	165.652063385998	1610
0	5946	165.703001082409	1611
0	5948	165.726480416315	1612
0	5956	165.890033620244	1613
0	5960	166.058991277436	1614
0	5962	166.247013550312	1615
0	5967	166.392532233281	1616
0	5970	166.563876472988	1617
0	5971	166.745924469414	1618
0	5975	166.88558975388	1619
0	5977	166.941023156894	1620
0	5979	166.963941577465	1621
0	5982	167.009726853749	1622
0	5989	167.069557670242	1623
0	5991	167.106805174804	1624
0	5993	167.128385882293	1625
0	6000	167.281489643365	1626
0	6007	167.388473633739	1627
0	6010	167.452051086239	1628
0	6015	167.599451285852	1629
0	6016	167.677914668717	1630
0	6021	167.800198145941	1631
0	6024	167.912340306164	1632
0	6027	167.966291444853	1633
0	6030	168.036090478669	1634
0	6033	168.166913076295	1635
0	6034	168.305264428251	1636
0	6039	168.472940245217	1637
0	6040	168.641133514379	1638
0	6041	168.833044206146	1639
0	6046	169.032125917077	1640
0	6048	169.051800902667	1641
0	6055	169.1700459317	1642
0	6059	169.245428872204	1643
0	6062	169.289421941328	1644
0	6067	169.430318535899	1645
0	6074	169.6268935051	1646
0	6077	169.806261974869	1647
0	6078	169.829361261113	1648
0	6085	169.941839439226	1649
0	6086	170.113553487619	1650
0	6087	170.208030634087	1651
0	6088	170.233397041925	1652
0	6093	170.358109296628	1653
0	6095	170.386406924203	1654
0	6099	170.468065522071	1655
0	6101	170.501461705845	1656
0	6103	170.674941664578	1657
0	6106	170.714846876022	1658
0	6112	170.779904695841	1659
0	6114	170.92442592753	1660
0	6121	171.050938642711	1661
0	6122	171.116577101465	1662
0	6126	171.169125667523	1663
0	6129	171.251056342818	1664
0	6130	171.281733868794	1665
0	6135	171.435560922685	1666
0	6138	171.513497830077	1667
0	6142	171.529661953672	1668
0	6149	171.70472283831	1669
0	6150	171.715247676586	1670
0	6162	171.841614359486	1671
0	6163	172.026438816617	1672
0	6167	172.155590307458	1673
0	6168	172.312408104934	1674
0	6173	172.419153438405	1675
0	6174	172.545585653047	1676
0	6178	172.627519730805	1677
0	6186	172.731409800703	1678
0	6189	172.790211064253	1679
0	6191	172.801418730613	1680
0	6198	172.971295710934	1681
0	6201	173.052540894718	1682
0	6203	173.106043486573	1683
0	6209	173.291167774481	1684
0	6210	173.319672107483	1685
0	6212	173.439011645092	1686
0	6214	173.462629244047	1687
0	6221	173.562289291431	1688
0	6236	173.756504187721	1689
0	6241	173.912863592219	1690
0	6246	174.041534165731	1691
0	6251	174.142047930977	1692
0	6255	174.333776887665	1693
0	6260	174.393577660837	1694
0	6266	174.508411874143	1695
0	6268	174.705122006082	1696
0	6273	174.79487394623	1697
0	6276	174.886026321305	1698
0	6281	175.083642932761	1699
0	6286	175.259008745656	1700
0	6287	175.417301378378	1701
0	6291	175.502026277412	1702
0	6297	175.568548512435	1703
0	6300	175.611064086558	1704
0	6306	175.699706623123	1705
0	6309	175.837109420925	1706
0	6313	175.964028420822	1707
0	6318	176.094561806164	1708
0	6323	176.207025272989	1709
0	6329	176.391000833959	1710
0	6334	176.55775712855	1711
0	6336	176.59358164707	1712
0	6345	176.711746900224	1713
0	6347	176.841828194973	1714
0	6351	176.879453267446	1715
0	6356	176.972189661844	1716
0	6360	177.030403040435	1717
0	6366	177.191432924643	1718
0	6368	177.209214704719	1719
0	6372	177.235285105961	1720
0	6380	177.387227735766	1721
0	6381	177.397346082425	1722
0	6388	177.479093416719	1723
0	6394	177.573906474995	1724
0	6398	177.748424547973	1725
0	6401	177.781364466741	1726
0	6408	177.962804715824	1727
0	6410	178.114024668203	1728
0	6415	178.218664232229	1729
0	6420	178.404567041797	1730
0	6421	178.582338985546	1731
0	6424	178.732150376776	1732
0	6427	178.785467980745	1733
0	6434	178.937129762975	1734
0	6437	179.097615622388	1735
0	6442	179.200903577347	1736
0	6444	179.222164787693	1737
0	6449	179.414367967112	1738
0	6455	179.5607932102	1739
0	6460	179.667372500766	1740
0	6463	179.78933909433	1741
0	6464	179.835536847564	1742
0	6469	180.032815365933	1743
0	6475	180.229126217109	1744
0	6476	180.349885278751	1745
0	6482	180.498488445561	1746
0	6485	180.563663024874	1747
0	6493	180.752117283092	1748
0	6494	180.765877275117	1749
0	6497	180.896906440104	1750
0	6499	181.055697682895	1751
0	6504	181.161783598982	1752
0	6508	181.358451398554	1753
0	6510	181.402084562426	1754
0	6515	181.531105170007	1755
0	6516	181.568731491313	1756
0	6519	181.682913579087	1757
0	6524	181.843977088507	1758
0	6531	182.001087551781	1759
0	6532	182.047390738123	1760
0	6535	182.186427464625	1761
0	6538	182.227845332928	1762
0	6543	182.35318457272	1763
0	6544	182.535777877058	1764
0	6548	182.657522529909	1765
0	6550	182.693726210849	1766
0	6555	182.860685039462	1767
0	6557	183.006226049216	1768
0	6560	183.193565014691	1769
0	6563	183.260505168624	1770
0	6564	183.456309636747	1771
0	6568	183.65089011993	1772
0	6572	183.780852630597	1773
0	6574	183.961662958837	1774
0	6576	184.112489438834	1775
0	6581	184.280922091947	1776
0	6583	184.303819563476	1777
0	6589	184.487422559037	1778
0	6591	184.676974047918	1779
0	6592	184.825226561241	1780
0	6597	185.013217741121	1781
0	6600	185.070414100804	1782
0	6601	185.164289973737	1783
0	6604	185.29400165688	1784
0	6607	185.403993592716	1785
0	6608	185.414022164023	1786
0	6614	185.519241258651	1787
0	6617	185.558935808125	1788
0	6620	185.580127658476	1789
0	6623	185.615259655299	1790
0	6626	185.762255396465	1791
0	6629	185.826647952252	1792
0	6633	185.909986592414	1793
0	6640	186.02036731098	1794
0	6642	186.044407214405	1795
0	6649	186.198705347	1796
0	6651	186.240320527757	1797
0	6659	186.357954507934	1798
0	6660	186.369141465729	1799
0	6661	186.52770582578	1800
0	6662	186.725808339017	1801
0	6664	186.767081083551	1802
0	6665	186.885351027635	1803
0	6666	186.955402715642	1804
0	6672	187.068606424786	1805
0	6674	187.261320684208	1806
0	6677	187.42322441953	1807
0	6678	187.461918848103	1808
0	6683	187.622808047011	1809
0	6684	187.645731645929	1810
0	6686	187.822008886784	1811
0	6690	187.895828740019	1812
0	6692	188.052643543745	1813
0	6695	188.099540276823	1814
0	6699	188.152389462462	1815
0	6707	188.243678722232	1816
0	6711	188.307997514856	1817
0	6717	188.490384565745	1818
0	6718	188.681200508591	1819
0	6723	188.766581202728	1820
0	6727	188.877247209904	1821
0	6730	188.954298526834	1822
0	6741	189.08497661542	1823
0	6746	189.193403758265	1824
0	6748	189.219918580987	1825
0	6753	189.384388382552	1826
0	6758	189.56783430677	1827
0	6764	189.698946660053	1828
0	6765	189.883683149257	1829
0	6766	190.046886815155	1830
0	6768	190.217920907383	1831
0	6771	190.266406626807	1832
0	6773	190.333776847444	1833
0	6774	190.3743910701	1834
0	6780	190.535035522681	1835
0	6785	190.624142141031	1836
0	6794	190.802361342391	1837
0	6796	190.960216083269	1838
0	6799	191.053792215493	1839
0	6806	191.20369771048	1840
0	6807	191.298268740666	1841
0	6809	191.47125594978	1842
0	6814	191.59890079285	1843
0	6817	191.731389593808	1844
0	6820	191.836716110432	1845
0	6826	191.920645906895	1846
0	6829	192.006032654226	1847
0	6830	192.154357652503	1848
0	6832	192.320285840099	1849
0	6837	192.508636713598	1850
0	6838	192.533182316247	1851
0	6841	192.692956876114	1852
0	6845	192.804259385438	1853
0	6848	192.981709744329	1854
0	6850	193.131430271514	1855
0	6852	193.188711145168	1856
0	6854	193.350030344955	1857
0	6857	193.38880483306	1858
0	6863	193.444513613819	1859
0	6870	193.641093501514	1860
0	6873	193.68800400273	1861
0	6878	193.796671513022	1862
0	6883	193.967296959517	1863
0	6884	194.054261506865	1864
0	6886	194.084523040223	1865
0	6889	194.168660985107	1866
0	6894	194.358875323475	1867
0	6895	194.474461219	1868
0	6896	194.542925291326	1869
0	6900	194.684617524232	1870
0	6901	194.870567620361	1871
0	6907	194.963283129287	1872
0	6912	195.029384005157	1873
0	6914	195.103367166029	1874
0	6915	195.182912225361	1875
0	6916	195.257632940839	1876
0	6918	195.290532520287	1877
0	6920	195.305432841982	1878
0	6929	195.412564668345	1879
0	6932	195.480782376788	1880
0	6936	195.550931076481	1881
0	6943	195.669181949595	1882
0	6948	195.790804030677	1883
0	6950	195.810400056842	1884
0	6956	195.961037513403	1885
0	6965	196.141890636737	1886
0	6968	196.183206705184	1887
0	6969	196.224300902992	1888
0	6970	196.248741451784	1889
0	6977	196.408025054636	1890
0	6979	196.597831060696	1891
0	6981	196.624948008885	1892
0	6986	196.813348787292	1893
0	6990	196.899686947558	1894
0	6993	197.078815925082	1895
0	6998	197.187061623757	1896
0	7000	197.221191465404	1897
0	7002	197.378377639189	1898
0	7007	197.490862427362	1899
0	7012	197.634188971448	1900
0	7018	197.807470072942	1901
0	7023	197.959463930897	1902
0	7028	198.075989558537	1903
0	7034	198.179035992283	1904
0	7035	198.333868975102	1905
0	7043	198.488642248805	1906
0	7046	198.531342256735	1907
0	7049	198.576742393849	1908
0	7052	198.653331768645	1909
0	7057	198.803571180624	1910
0	7063	198.945069318094	1911
0	7066	199.025891407807	1912
0	7072	199.151860348004	1913
0	7076	199.230117219248	1914
0	7079	199.258417572581	1915
0	7083	199.318162605389	1916
0	7089	199.445612763599	1917
0	7091	199.502290666622	1918
0	7094	199.591803442505	1919
0	7101	199.715616062521	1920
0	7103	199.731722674337	1921
0	7111	199.913020992339	1922
0	7116	199.98743543765	1923
0	7117	200.126907803141	1924
0	7122	200.278552265733	1925
0	7124	200.43940167502	1926
0	7127	200.502994506003	1927
0	7130	200.554254860969	1928
0	7132	200.603329476982	1929
0	7133	200.67112448622	1930
0	7138	200.839392196091	1931
0	7143	201.005138299572	1932
0	7145	201.192947142075	1933
0	7147	201.224075697511	1934
0	7149	201.24055549296	1935
0	7155	201.29988887204	1936
0	7162	201.494155716849	1937
0	7167	201.604732703061	1938
0	7173	201.720518257725	1939
0	7174	201.768364493991	1940
0	7176	201.936589502198	1941
0	7178	202.051927703167	1942
0	7179	202.066828654941	1943
0	7185	202.136309643587	1944
0	7194	202.259829248769	1945
0	7197	202.443564138423	1946
0	7198	202.511698867196	1947
0	7199	202.658292519647	1948
0	7200	202.815691763045	1949
0	7204	202.907396466	1950
0	7209	203.053527728763	1951
0	7212	203.143000365856	1952
0	7216	203.298139866441	1953
0	7219	203.331410034487	1954
0	7226	203.496950221699	1955
0	7231	203.611370679582	1956
0	7232	203.635973411619	1957
0	7236	203.682122514706	1958
0	7238	203.765076636841	1959
0	7244	203.886040348931	1960
0	7247	204.024045029158	1961
0	7252	204.197351622741	1962
0	7257	204.377236929712	1963
0	7258	204.537476221173	1964
0	7264	204.623073317314	1965
0	7267	204.662365152595	1966
0	7277	204.82514392496	1967
0	7284	204.932159154004	1968
0	7288	205.019053267749	1969
0	7292	205.192005480897	1970
0	7293	205.378889312615	1971
0	7296	205.438673337702	1972
0	7300	205.490314291401	1973
0	7303	205.543229645055	1974
0	7306	205.617564342047	1975
0	7310	205.676033024543	1976
0	7317	205.832911085302	1977
0	7324	205.958475829428	1978
0	7326	206.121873036683	1979
0	7329	206.163316439941	1980
0	7338	206.319881620429	1981
0	7339	206.361339138384	1982
0	7344	206.415612089092	1983
0	7349	206.560872543108	1984
0	7350	206.653462689699	1985
0	7356	206.743989914759	1986
0	7358	206.766497024313	1987
0	7364	206.890283275313	1988
0	7366	207.004829954187	1989
0	7369	207.061732522795	1990
0	7371	207.080742978215	1991
0	7379	207.159149687564	1992
0	7386	207.310168211601	1993
0	7388	207.414997209945	1994
0	7391	207.560063277042	1995
0	7397	207.707810326751	1996
0	7402	207.810603424114	1997
0	7404	207.974213061746	1998
0	7405	207.99352980317	1999
0	7414	208.091125094126	2000
0	7416	208.149175942737	2001
0	7419	208.188691549335	2002
0	7438	208.328292777612	2003
0	7443	208.43344580575	2004
0	7444	208.470817242615	2005
0	7450	208.557012706442	2006
0	7455	208.685967774185	2007
0	7458	208.880761416341	2008
0	7460	208.94363546725	2009
0	7465	209.122585277302	2010
0	7466	209.249459922633	2011
0	7468	209.272623306297	2012
0	7476	209.419088147146	2013
0	7481	209.593965002488	2014
0	7486	209.793282086149	2015
0	7488	209.919484016472	2016
0	7490	210.105332446918	2017
0	7491	210.150223857747	2018
0	7494	210.23090311375	2019
0	7498	210.422209576895	2020
0	7500	210.493625709883	2021
0	7502	210.579343480433	2022
0	7503	210.646052830296	2023
0	7504	210.743510353481	2024
0	7509	210.845771709699	2025
0	7511	210.954344352954	2026
0	7514	211.051369424397	2027
0	7520	211.217677172243	2028
0	7521	211.312714824306	2029
0	7522	211.490969914882	2030
0	7523	211.631487555704	2031
0	7528	211.762064048105	2032
0	7529	211.78504383963	2033
0	7534	211.941574035477	2034
0	7536	212.008590721639	2035
0	7539	212.109709024154	2036
0	7543	212.28236823335	2037
0	7544	212.432202243644	2038
0	7546	212.460850351338	2039
0	7549	212.511838520052	2040
0	7552	212.636710613616	2041
0	7554	212.666407863734	2042
0	7556	212.706325962982	2043
0	7559	212.887392404723	2044
0	7561	212.976863857392	2045
0	7567	213.070779455757	2046
0	7571	213.145850404949	2047
0	7574	213.290645112466	2048
0	7577	213.333081274876	2049
0	7581	213.366067256453	2050
0	7586	213.497182486079	2051
0	7588	213.591334660841	2052
0	7589	213.657939412187	2053
0	7594	213.81780664777	2054
0	7595	213.843662972016	2055
0	7600	213.961719846973	2056
0	7601	213.986345187191	2057
0	7603	214.142590576178	2058
0	7608	214.209823313316	2059
0	7614	214.275236380454	2060
0	7616	214.459407691443	2061
0	7621	214.623662068837	2062
0	7622	214.648530653066	2063
0	7630	214.788160081804	2064
0	7631	214.809906285862	2065
0	7635	214.921891120286	2066
0	7639	215.118492846336	2067
0	7642	215.176114114107	2068
0	7643	215.36479853968	2069
0	7646	215.513947921499	2070
0	7651	215.635242410979	2071
0	7652	215.72960460958	2072
0	7658	215.848821444697	2073
0	7663	216.046827167658	2074
0	7666	216.126482184212	2075
0	7669	216.266571546422	2076
0	7672	216.391179817779	2077
0	7677	216.506659919216	2078
0	7678	216.586317986985	2079
0	7681	216.718903456211	2080
0	7686	216.852465899516	2081
0	7690	216.951214730485	2082
0	7695	217.082646614398	2083
0	7701	217.241279275744	2084
0	7702	217.26659639964	2085
0	7703	217.368902086845	2086
0	7705	217.426215298436	2087
0	7708	217.481831093504	2088
0	7716	217.579990069693	2089
0	7721	217.651979130301	2090
0	7723	217.679041212708	2091
0	7728	217.878262760457	2092
0	7729	217.956289666336	2093
0	7730	217.97327885416	2094
0	7733	218.106490608322	2095
0	7734	218.148718580241	2096
0	7735	218.331438196523	2097
0	7738	218.525306239531	2098
0	7745	218.669202488246	2099
0	7747	218.754847447765	2100
0	7749	218.776418608909	2101
0	7757	218.87736365125	2102
0	7760	219.076740479152	2103
0	7762	219.139256584278	2104
0	7764	219.245306341519	2105
0	7771	219.374102012293	2106
0	7775	219.456685610462	2107
0	7780	219.554736962576	2108
0	7781	219.589221380233	2109
0	7782	219.61188628079	2110
0	7787	219.680081346634	2111
0	7789	219.705144727203	2112
0	7798	219.8777512676	2113
0	7801	219.908379679198	2114
0	7803	219.927884598674	2115
0	7809	219.990214446643	2116
0	7814	220.042427756453	2117
0	7823	220.183797445071	2118
0	7829	220.306038961571	2119
0	7837	220.420119419938	2120
0	7839	220.600724846283	2121
0	7842	220.632005732758	2122
0	7845	220.715299546602	2123
0	7846	220.766767833002	2124
0	7851	220.849140647989	2125
0	7854	220.906986045802	2126
0	7858	221.025287968833	2127
0	7863	221.10894139189	2128
0	7868	221.260772286024	2129
0	7869	221.284049387655	2130
0	7871	221.313763114372	2131
0	7878	221.382069491292	2132
0	7882	221.431380095782	2133
0	7887	221.597958868239	2134
0	7891	221.688154390454	2135
0	7894	221.810166820949	2136
0	7897	221.980696714455	2137
0	7898	222.159022605454	2138
0	7903	222.337223279704	2139
0	7907	222.430953057052	2140
0	7908	222.613377079258	2141
0	7910	222.796702049926	2142
0	7912	222.861214839911	2143
0	7914	223.03518698662	2144
0	7915	223.178805913603	2145
0	7917	223.327231063788	2146
0	7922	223.470713806847	2147
0	7932	223.653707974777	2148
0	7933	223.766197236942	2149
0	7935	223.964399872979	2150
0	7936	224.121294768707	2151
0	7939	224.192860210008	2152
0	7944	224.36396045782	2153
0	7945	224.458142681963	2154
0	7950	224.553601258011	2155
0	7952	224.582288655704	2156
0	7957	224.696078669455	2157
0	7962	224.868598022678	2158
0	7963	224.998245441802	2159
0	7968	225.130847194926	2160
0	7969	225.279553407417	2161
0	7971	225.440232668175	2162
0	7973	225.458638418886	2163
0	7977	225.563872884033	2164
0	7980	225.615819776734	2165
0	7981	225.746173174391	2166
0	7983	225.86260623222	2167
0	7984	226.062282224943	2168
0	7989	226.146666265098	2169
0	7992	226.169369792441	2170
0	7994	226.192602390778	2171
0	8001	226.389687545449	2172
0	8003	226.416808550158	2173
0	8008	226.491869227814	2174
0	8014	226.564045902442	2175
0	8019	226.713212951343	2176
0	8025	226.834088314707	2177
0	8030	227.032528497719	2178
0	8034	227.15331886231	2179
0	8038	227.201636020546	2180
0	8042	227.322275638122	2181
0	8045	227.475554474004	2182
0	8050	227.590609195247	2183
0	8054	227.7504428925	2184
0	8056	227.905831285734	2185
0	8058	227.970041249246	2186
0	8063	228.064051657713	2187
0	8066	228.221313108036	2188
0	8067	228.392867853111	2189
0	8072	228.528908159121	2190
0	8075	228.573825855312	2191
0	8083	228.725194368207	2192
0	8084	228.844971618718	2193
0	8086	229.017054881859	2194
0	8087	229.035871545358	2195
0	8088	229.074337507477	2196
0	8091	229.106669720132	2197
0	8094	229.135452895144	2198
0	8104	229.241333195956	2199
0	8105	229.258109025029	2200
0	8111	229.447221856132	2201
0	8115	229.523213827317	2202
0	8116	229.580569520533	2203
0	8117	229.610690086001	2204
0	8122	229.807788380721	2205
0	8123	229.874540972127	2206
0	8127	230.02652594872	2207
0	8130	230.20205576268	2208
0	8134	230.307433478965	2209
0	8136	230.385196111943	2210
0	8137	230.407819047794	2211
0	8141	230.464534407468	2212
0	8143	230.500985025613	2213
0	8144	230.677384155293	2214
0	8146	230.842377441766	2215
0	8148	230.920813407312	2216
0	8151	230.93404859769	2217
0	8157	231.093522040211	2218
0	8161	231.206544378663	2219
0	8165	231.340634279433	2220
0	8166	231.383027696384	2221
0	8171	231.454249101247	2222
0	8172	231.475790050214	2223
0	8177	231.652471883202	2224
0	8180	231.821886423624	2225
0	8184	231.952665708263	2226
0	8187	232.148245324073	2227
0	8188	232.267739860837	2228
0	8189	232.285013558774	2229
0	8193	232.324638318394	2230
0	8198	232.411737037995	2231
0	8201	232.511350285523	2232
0	8204	232.687085974743	2233
0	8208	232.813279074268	2234
0	8210	232.89386600921	2235
0	8211	233.040589283612	2236
0	8213	233.117432155463	2237
0	8220	233.297319221595	2238
0	8223	233.344085356128	2239
0	8228	233.445969103338	2240
0	8231	233.490568824122	2241
0	8237	233.542039229824	2242
0	8242	233.634930805902	2243
0	8248	233.816407904516	2244
0	8250	233.975965128209	2245
0	8253	234.022925287132	2246
0	8257	234.067087782559	2247
0	8259	234.134251623226	2248
0	8264	234.311913777548	2249
0	8268	234.374757465827	2250
0	8273	234.44890444024	2251
0	8275	234.630699104927	2252
0	8279	234.829448552918	2253
0	8281	234.84881964639	2254
0	8288	235.035818166653	2255
0	8290	235.228337840218	2256
0	8295	235.332698106541	2257
0	8301	235.51560011333	2258
0	8302	235.558921104515	2259
0	8303	235.682070276462	2260
0	8308	235.807446709822	2261
0	8312	235.968737385016	2262
0	8317	236.059011779331	2263
0	8320	236.111125712412	2264
0	8326	236.222516138347	2265
0	8329	236.279203539717	2266
0	8337	236.448703217155	2267
0	8340	236.478551889402	2268
0	8346	236.53193283658	2269
0	8349	236.596600849784	2270
0	8356	236.723591531189	2271
0	8357	236.736731499301	2272
0	8363	236.794009474714	2273
0	8371	236.881682130292	2274
0	8374	236.991328881896	2275
0	8377	237.142878622993	2276
0	8382	237.236701106581	2277
0	8386	237.416012450369	2278
0	8388	237.457053580574	2279
0	8389	237.477879847438	2280
0	8393	237.610994303784	2281
0	8398	237.699262722855	2282
0	8401	237.757735871026	2283
0	8407	237.899505171881	2284
0	8412	238.066319976522	2285
0	8413	238.128202950864	2286
0	8414	238.301466788769	2287
0	8416	238.469487324409	2288
0	8418	238.548697506302	2289
0	8423	238.721880422214	2290
0	8424	238.745239722054	2291
0	8425	238.7702698648	2292
0	8428	238.867275239662	2293
0	8433	239.06715850065	2294
0	8434	239.206981267252	2295
0	8439	239.329277571941	2296
0	8444	239.513316882533	2297
0	8446	239.53374600448	2298
0	8454	239.69081517011	2299
0	8457	239.862636731363	2300
0	8461	239.942201445781	2301
1	2	0.142870607559	1
1	9	0.344892633497	2
1	16	0.771912164162	3
1	25	1.11701389124	4
1	33	1.321183531026	5
1	34	1.32765420258	6
1	39	1.364623619637	7
1	47	1.707906593132	8
1	59	2.121772593031	9
1	63	2.322381611996	10
1	68	2.624242699621	11
1	71	2.639628163478	12
1	78	2.705498619803	13
1	84	2.891674365646	14
1	89	3.004407536377	15
1	92	3.039479682612	16
1	102	3.115420385286	17
1	108	3.174768719711	18
1	114	3.259773100123	19
1	117	3.316233323	20
1	120	3.345150168031	21
1	126	3.476062198093	22
1	129	3.643462116931	23
1	136	3.964453211665	24
1	140	4.201772252386	25
1	145	4.360267992164	26
1	153	4.760503390495	27
1	157	4.797088437727	28
1	169	4.999387588687	29
1	174	5.107539049789	30
1	177	5.131181791842	31
1	180	5.323596537602	32
1	185	5.479291837664	33
1	188	5.540958852593	34
1	192	5.583089934022	35
1	196	5.747164544174	36
1	201	5.882650429671	37
1	204	5.940168853511	38
1	213	6.386057121688	39
1	223	6.688470192292	40
1	231	6.895831442123	41
1	233	6.900327382955	42
1	241	7.081728555121	43
1	246	7.24589369149	44
1	250	7.456215838369	45
1	253	7.577076220622	46
1	260	7.723796988987	47
1	261	7.73677847092	48
1	275	8.476922820696	49
1	280	8.600411088381	50
1	285	8.666197948924	51
1	291	8.879125510452	52
1	299	9.201858158692	53
1	304	9.26457027561	54
1	307	9.342703984919	55
1	311	9.478254011145	56
1	320	9.951471490074	57
1	328	10.04887184304	58
1	330	10.082852279317	59
1	338	10.217266304298	60
1	344	10.493975764753	61
1	348	10.568712004772	62
1	355	10.909540588716	63
1	360	11.06204501293	64
1	365	11.281287699648	65
1	368	11.476772247207	66
1	374	11.643383730608	67
1	379	11.810520103796	68
1	384	11.947997150887	69
1	388	12.012533105529	70
1	393	12.063737542742	71
1	402	12.309342270043	72
1	407	12.408386557513	73
1	412	12.473156197223	74
1	417	12.783344919246	75
1	422	12.97732348382	76
1	428	13.388647708955	77
1	433	13.488722667745	78
1	439	13.79658030014	79
1	446	14.024970206319	80
1	455	14.263982768543	81
1	458	14.3276370158	82
1	464	14.424915908392	83
1	469	14.618149187997	84
1	472	14.755171503214	85
1	477	14.814173491359	86
1	478	14.827010699271	87
1	487	14.930982714175	88
1	490	15.045475328714	89
1	496	15.127833646957	90
1	499	15.268710498193	91
1	503	15.316099849994	92
1	512	15.429246558253	93
1	515	15.534923318011	94
1	520	15.665238291086	95
1	525	15.807856947466	96
1	528	15.823244102449	97
1	536	15.9017245051	98
1	539	16.022756282328	99
1	550	16.462352268112	100
1	555	16.574666513225	101
1	558	16.708950520707	102
1	565	16.892939091756	103
1	572	17.254565480686	104
1	576	17.524636021606	105
1	580	17.573193710917	106
1	585	17.596825004258	107
1	591	17.682627635699	108
1	595	17.837620039601	109
1	598	17.948682922694	110
1	602	18.15748630777	111
1	607	18.255366249276	112
1	619	18.544186042698	113
1	626	18.787697161865	114
1	629	18.933279447941	115
1	634	19.013347906131	116
1	639	19.165315324763	117
1	642	19.199387662722	118
1	650	19.712360084598	119
1	656	19.842717678332	120
1	661	19.988592878308	121
1	666	20.070831441512	122
1	673	20.220966986223	123
1	677	20.285336585068	124
1	680	20.377708588527	125
1	688	20.750577924334	126
1	694	21.111654049062	127
1	698	21.198569996506	128
1	703	21.334034099977	129
1	710	21.599583841647	130
1	718	21.731626777265	131
1	723	21.800559414769	132
1	730	21.891536581219	133
1	734	21.993618124333	134
1	739	22.130007702891	135
1	745	22.347563612201	136
1	748	22.50031682409	137
1	751	22.536696382234	138
1	757	22.677650985645	139
1	762	22.774103834616	140
1	768	22.964613716647	141
1	772	23.022602417071	142
1	780	23.191054670621	143
1	785	23.281774593517	144
1	796	23.724605116559	145
1	800	23.7987343464	146
1	805	23.96639303623	147
1	808	24.077757425336	148
1	813	24.263849141297	149
1	816	24.287979797444	150
1	824	24.35709359416	151
1	831	24.645037602004	152
1	836	24.737644376905	153
1	843	24.991427537513	154
1	851	25.209069734849	155
1	853	25.224717763449	156
1	859	25.289274966929	157
1	864	25.491557607614	158
1	867	25.538521360848	159
1	870	25.5706509602	160
1	875	25.695164949003	161
1	880	25.813411504547	162
1	886	25.960688554088	163
1	888	25.995189595299	164
1	892	26.019214242741	165
1	898	26.228511712473	166
1	906	26.66308137402	167
1	912	26.772869342681	168
1	916	26.851043473656	169
1	918	26.868300838836	170
1	925	26.94572673322	171
1	931	27.016119511741	172
1	935	27.042391321831	173
1	943	27.283001340422	174
1	944	27.287162209687	175
1	956	27.581531291539	176
1	962	27.693669239429	177
1	971	27.80390125784	178
1	978	27.949705391977	179
1	984	28.329225975459	180
1	991	28.420774313882	181
1	994	28.447425535625	182
1	1000	28.587989056119	183
1	1005	28.682847659004	184
1	1010	28.744511914286	185
1	1014	28.787212957843	186
1	1019	28.913301121709	187
1	1022	28.969533455815	188
1	1030	29.263366708707	189
1	1036	29.432076007881	190
1	1043	29.62193483818	191
1	1048	29.710276481907	192
1	1059	30.10423657977	193
1	1062	30.144903066465	194
1	1071	30.302438359573	195
1	1076	30.351550166635	196
1	1083	30.578046333299	197
1	1089	30.709338374919	198
1	1093	30.866343880027	199
1	1096	30.918343147855	200
1	1101	31.045657041782	201
1	1108	31.236828824771	202
1	1109	31.241940971869	203
1	1113	31.270103874937	204
1	1122	31.576830663786	205
1	1127	31.64723481807	206
1	1133	31.800370654417	207
1	1138	31.950626119625	208
1	1142	32.093327766002	209
1	1147	32.204387494526	210
1	1150	32.330423887919	211
1	1155	32.625918229996	212
1	1159	32.887356676373	213
1	1164	32.965464462744	214
1	1167	33.035872320962	215
1	1170	33.225126218071	216
1	1173	33.317534119045	217
1	1179	33.480309612925	218
1	1184	33.6350384646	219
1	1187	33.707611007088	220
1	1197	33.877385366346	221
1	1203	33.990732371626	222
1	1210	34.214348680705	223
1	1212	34.251196607471	224
1	1221	34.36246722285	225
1	1224	34.537929024658	226
1	1238	34.990457630183	227
1	1243	35.192022513476	228
1	1246	35.285327045614	229
1	1251	35.425420623535	230
1	1258	35.594000792825	231
1	1261	35.715874134688	232
1	1267	35.877234489141	233
1	1268	35.888239147137	234
1	1274	35.994177333282	235
1	1279	36.150646156909	236
1	1289	36.70745132598	237
1	1292	36.736010804848	238
1	1299	36.92120731554	239
1	1306	37.292543649523	240
1	1318	37.750674433105	241
1	1321	37.867450543141	242
1	1329	38.295737076839	243
1	1336	38.54185466191	244
1	1337	38.542424429476	245
1	1346	38.794786956871	246
1	1348	38.819727981709	247
1	1358	39.21055570649	248
1	1363	39.4043743041	249
1	1366	39.535661824212	250
1	1370	39.576676687571	251
1	1374	39.720509130414	252
1	1379	39.905136314378	253
1	1383	40.065491746545	254
1	1386	40.197771574711	255
1	1390	40.280939997549	256
1	1397	40.803313719596	257
1	1403	40.976696198753	258
1	1405	40.996291529186	259
1	1412	41.198601840735	260
1	1415	41.237703969114	261
1	1426	41.582643602798	262
1	1427	41.602057671863	263
1	1436	41.701128842471	264
1	1440	41.989727027571	265
1	1445	42.163843647762	266
1	1450	42.305058817142	267
1	1453	42.327850121388	268
1	1460	42.468590716061	269
1	1463	42.574240689887	270
1	1467	42.659154571131	271
1	1479	42.991483695581	272
1	1482	43.026284650801	273
1	1493	43.159256344713	274
1	1497	43.20511306937	275
1	1509	43.608572908816	276
1	1513	43.688352611241	277
1	1516	43.806930291008	278
1	1525	44.158311131637	279
1	1532	44.261259926335	280
1	1536	44.347406324856	281
1	1541	44.49792381982	282
1	1545	44.543769427383	283
1	1553	44.708526381689	284
1	1558	44.911516236257	285
1	1562	44.9472541133	286
1	1564	44.96562137923	287
1	1576	45.143510314022	288
1	1583	45.280751579289	289
1	1592	45.873993294282	290
1	1595	45.900221575277	291
1	1602	46.015952393471	292
1	1608	46.102228203153	293
1	1612	46.207935133256	294
1	1616	46.259768907568	295
1	1625	46.587267368392	296
1	1630	46.663460831786	297
1	1635	46.856259510724	298
1	1644	46.977632106969	299
1	1653	47.299117604387	300
1	1658	47.432563596058	301
1	1664	47.635190494237	302
1	1671	47.804474078327	303
1	1679	48.060032739522	304
1	1685	48.294979897815	305
1	1688	48.314289314299	306
1	1692	48.499266747641	307
1	1697	48.66905906798	308
1	1700	48.69048107664	309
1	1708	48.888140166807	310
1	1713	48.950254838622	311
1	1723	49.472832896721	312
1	1730	49.672735714988	313
1	1737	49.796754035529	314
1	1740	49.82388905923	315
1	1741	49.832088742885	316
1	1750	49.868098501121	317
1	1761	50.09084161136	318
1	1766	50.206291926939	319
1	1771	50.459826591939	320
1	1776	50.552712174433	321
1	1781	50.638694271745	322
1	1787	50.959533492311	323
1	1792	51.075577664787	324
1	1798	51.142505553832	325
1	1808	51.705535604406	326
1	1811	51.837046497923	327
1	1817	52.014607591349	328
1	1824	52.132696026696	329
1	1828	52.187562830819	330
1	1834	52.366841605799	331
1	1839	52.44640942195	332
1	1843	52.572493780741	333
1	1846	52.635375482392	334
1	1849	52.668574154116	335
1	1857	52.948062741873	336
1	1860	52.997883328544	337
1	1863	53.054739820632	338
1	1869	53.338301422033	339
1	1874	53.480854144277	340
1	1880	53.633950764082	341
1	1883	53.680112597277	342
1	1888	53.814718094356	343
1	1891	53.844979737031	344
1	1898	53.989361030278	345
1	1902	54.19520508949	346
1	1905	54.228002705486	347
1	1912	54.412038265885	348
1	1914	54.430348685158	349
1	1924	54.703982449233	350
1	1930	54.847404591227	351
1	1938	54.998381087801	352
1	1942	55.171794094711	353
1	1950	55.444962611174	354
1	1955	55.687086688577	355
1	1961	55.779619730937	356
1	1967	55.809972210418	357
1	1975	56.0091773431	358
1	1980	56.07289231972	359
1	1986	56.213615912927	360
1	1994	56.422428243832	361
1	1996	56.437575270154	362
1	2004	56.523627467476	363
1	2008	56.667262065575	364
1	2015	56.898452518824	365
1	2025	57.114652412754	366
1	2027	57.131455221143	367
1	2036	57.347025779767	368
1	2040	57.380046158807	369
1	2044	57.431951759394	370
1	2049	57.460832129459	371
1	2054	57.524352444137	372
1	2058	57.678275985513	373
1	2064	57.728733650988	374
1	2066	57.743680743071	375
1	2071	57.773851189047	376
1	2079	57.943998299011	377
1	2089	58.329323367647	378
1	2093	58.432700771887	379
1	2097	58.522490001031	380
1	2106	58.657131193981	381
1	2107	58.659793717673	382
1	2114	58.732663482109	383
1	2119	58.898320494201	384
1	2123	59.022217700263	385
1	2131	59.461299346474	386
1	2138	59.60295801571	387
1	2143	59.748187392931	388
1	2148	59.934665882818	389
1	2155	60.080647508771	390
1	2160	60.183545998799	391
1	2167	60.362348977138	392
1	2172	60.539010573457	393
1	2178	60.77554047467	394
1	2183	60.921217245468	395
1	2190	61.080953057021	396
1	2194	61.404497846029	397
1	2199	61.500095970125	398
1	2202	61.65562747318	399
1	2209	61.775763524189	400
1	2213	61.812088152247	401
1	2223	61.990412269951	402
1	2224	61.999136529266	403
1	2233	62.050763119821	404
1	2240	62.240828018364	405
1	2245	62.326011423059	406
1	2252	62.428561368492	407
1	2255	62.456297735314	408
1	2260	62.516927150048	409
1	2267	62.649232328104	410
1	2273	62.963721848656	411
1	2279	63.212827509181	412
1	2282	63.326384591858	413
1	2288	63.477476782688	414
1	2293	63.565359785284	415
1	2296	63.588554866347	416
1	2302	63.716629217821	417
1	2308	63.907283134203	418
1	2312	63.997003688336	419
1	2315	64.032839127502	420
1	2323	64.18810648097	421
1	2328	64.321055682589	422
1	2332	64.360176938057	423
1	2337	64.435674060356	424
1	2342	64.531620014317	425
1	2345	64.604181460144	426
1	2350	64.807592339877	427
1	2354	65.009495554792	428
1	2357	65.048615066388	429
1	2369	65.176629396117	430
1	2375	65.35444593446	431
1	2378	65.541999210936	432
1	2383	65.590788056856	433
1	2388	65.659178051229	434
1	2393	65.695259521931	435
1	2396	65.710640089296	436
1	2401	65.75198493677	437
1	2410	65.857165051284	438
1	2417	66.063571017814	439
1	2420	66.078369320642	440
1	2427	66.262594567783	441
1	2428	66.270285540518	442
1	2434	66.328869095805	443
1	2440	66.461819228835	444
1	2445	66.571369864646	445
1	2448	66.617337241416	446
1	2457	66.726364057815	447
1	2460	66.937710203739	448
1	2463	67.044041366186	449
1	2474	67.356513992142	450
1	2481	67.482818216604	451
1	2486	67.70773471087	452
1	2492	67.823918586125	453
1	2495	67.842398656055	454
1	2500	67.982846646109	455
1	2504	68.171251148315	456
1	2509	68.358326249855	457
1	2514	68.570508775101	458
1	2521	68.699927285218	459
1	2525	68.818997451863	460
1	2533	69.319600044812	461
1	2535	69.33550954961	462
1	2541	69.391033032814	463
1	2549	69.620461045126	464
1	2559	70.262083999747	465
1	2563	70.417579622011	466
1	2566	70.459348118436	467
1	2571	70.58703289632	468
1	2574	70.747486244014	469
1	2579	70.824951637052	470
1	2583	70.954604793748	471
1	2584	70.964124290124	472
1	2594	71.154226321981	473
1	2600	71.300744225172	474
1	2601	71.309366371437	475
1	2607	71.499684478957	476
1	2612	71.622017521141	477
1	2615	71.653296594292	478
1	2622	72.040397612499	479
1	2623	72.050683941372	480
1	2630	72.219454846218	481
1	2637	72.446040621622	482
1	2640	72.559278009072	483
1	2649	72.737160407136	484
1	2659	73.163547457913	485
1	2665	73.291878864464	486
1	2668	73.368444978248	487
1	2672	73.53864085158	488
1	2675	73.667551219212	489
1	2680	73.896160796731	490
1	2683	74.044688768804	491
1	2691	74.459400864799	492
1	2699	74.846515591635	493
1	2704	74.925853423389	494
1	2706	74.943072264714	495
1	2714	75.030388510949	496
1	2723	75.655984625442	497
1	2726	75.68240010566	498
1	2732	75.739605820306	499
1	2736	75.775717569871	500
1	2744	75.988261277231	501
1	2751	76.072156243427	502
1	2757	76.174780866555	503
1	2768	76.31562524001	504
1	2772	76.392608389796	505
1	2781	76.65495800876	506
1	2788	76.936074214633	507
1	2792	77.019188921227	508
1	2796	77.074340065091	509
1	2801	77.323745090328	510
1	2806	77.649864986362	511
1	2810	77.722600533809	512
1	2820	78.069255036141	513
1	2826	78.351701332631	514
1	2831	78.39449955111	515
1	2834	78.411715686839	516
1	2842	78.555848080184	517
1	2846	78.581018735017	518
1	2861	78.921671744213	519
1	2864	78.996428347449	520
1	2870	79.158408209259	521
1	2875	79.550118601973	522
1	2880	79.620049334951	523
1	2883	79.686060160836	524
1	2889	79.873979890952	525
1	2895	80.016806342035	526
1	2906	80.210894841564	527
1	2908	80.24216340925	528
1	2916	80.377848765161	529
1	2921	80.558698408242	530
1	2926	80.718066329022	531
1	2929	80.857828640418	532
1	2936	80.969511745282	533
1	2942	81.122210684708	534
1	2947	81.209317972635	535
1	2951	81.298914791521	536
1	2957	81.458984403571	537
1	2967	81.730635730209	538
1	2973	81.978580453422	539
1	2978	82.07217779789	540
1	2984	82.128248418931	541
1	2985	82.133787951466	542
1	2992	82.189153487248	543
1	2998	82.334973281593	544
1	3003	82.683266504396	545
1	3007	82.746096028222	546
1	3010	82.819818037499	547
1	3015	83.119815134851	548
1	3020	83.174728693718	549
1	3025	83.312083045259	550
1	3028	83.333206853068	551
1	3035	83.523446400778	552
1	3041	83.658834273694	553
1	3044	83.711494272955	554
1	3047	83.739872541279	555
1	3053	83.869010247663	556
1	3057	83.899016021895	557
1	3059	83.910609721924	558
1	3069	84.334189326403	559
1	3078	84.568289820171	560
1	3083	84.625954646097	561
1	3090	84.844154247171	562
1	3095	84.904053485866	563
1	3098	84.96650173221	564
1	3102	85.163464597081	565
1	3107	85.339852001181	566
1	3111	85.419530953559	567
[...]
9	2268	62.683391181283	276
9	2274	62.975478898334	277
9	2283	63.347196203112	278
9	2295	63.58314782958	279
9	2303	63.730377064979	280
9	2318	64.06913184098	281
9	2324	64.204910425626	282
9	2329	64.339496473526	283
9	2334	64.37408484235	284
9	2358	65.064650156338	285
9	2360	65.105392707795	286
9	2361	65.116471586173	287
9	2363	65.129772741051	288
9	2371	65.201957259107	289
9	2379	65.554570161059	290
9	2395	65.708333691629	291
9	2402	65.754744653422	292
9	2403	65.765182008669	293
9	2411	65.871772100306	294
9	2413	65.899575922624	295
9	2419	66.07403612465	296
9	2422	66.088591960616	297
9	2430	66.296732049536	298
9	2431	66.300481134618	299
9	2441	66.47313190274	300
9	2452	66.665619300442	301
9	2464	67.068798352604	302
9	2466	67.098190366282	303
9	2475	67.366628566575	304
9	2477	67.400033819648	305
9	2487	67.739067256174	306
9	2496	67.866709142068	307
9	2505	68.19743832789	308
9	2510	68.368749440737	309
9	2534	69.333427745067	310
9	2537	69.352343425751	311
9	2540	69.381248409148	312
9	2545	69.431420813122	313
9	2560	70.276202411733	314
9	2586	70.997269423723	315
9	2589	71.026100623323	316
9	2608	71.513415069391	317
9	2616	71.66982787833	318
9	2642	72.601092551671	319
9	2644	72.649281523569	320
9	2660	73.198447692346	321
9	2669	73.382629480945	322
9	2676	73.678629103898	323
9	2708	74.974890672076	324
9	2724	75.667738339374	325
9	2729	75.700749251236	326
9	2734	75.759319302025	327
9	2746	76.031463792476	328
9	2753	76.098858828067	329
9	2756	76.16756233814	330
9	2758	76.18560639287	331
9	2761	76.211501823517	332
9	2764	76.266717863725	333
9	2774	76.430133278495	334
9	2782	76.666362371874	335
9	2812	77.744291910733	336
9	2836	78.4362108633	337
9	2844	78.569501747982	338
9	2847	78.595778783431	339
9	2851	78.636088681983	340
9	2853	78.663191440813	341
9	2855	78.716168260173	342
9	2866	79.063633532581	343
9	2884	79.69711582293	344
9	2896	80.032201396114	345
9	2898	80.055707842076	346
9	2900	80.09471359325	347
9	2902	80.129988424496	348
9	2909	80.2666646564	349
9	2911	80.316730053054	350
9	2917	80.390908279921	351
9	2922	80.581630986263	352
9	2937	80.987249936401	353
9	2953	81.334362460565	354
9	2960	81.510453643386	355
9	2969	81.775050907394	356
9	2974	81.99267024998	357
9	2979	82.083007847252	358
9	2986	82.140054833576	359
9	2990	82.181182027157	360
9	2999	82.353039431346	361
9	3004	82.715986184005	362
9	3021	83.189283603823	363
9	3030	83.36606976557	364
9	3036	83.53356925761	365
9	3071	84.373959711233	366
9	3074	84.409310832806	367
9	3079	84.579307605304	368
9	3085	84.68183028875	369
9	3116	85.550046400525	370
9	3125	85.863852989737	371
9	3136	86.190838550648	372
9	3147	86.469021079435	373
9	3152	86.637737437018	374
9	3158	86.933060709767	375
9	3160	87.004790819626	376
9	3162	87.035604917934	377
9	3166	87.096898783033	378
9	3176	87.448288798335	379
9	3178	87.493217625073	380
9	3186	87.761855264789	381
9	3194	87.969793784544	382
9	3195	87.971593279105	383
9	3199	87.997301390598	384
9	3203	88.019764039471	385
9	3204	88.025743041726	386
9	3228	88.584296502762	387
9	3255	89.820686651588	388
9	3260	89.998021294269	389
9	3265	90.164378047637	390
9	3269	90.197262847062	391
9	3280	90.696293412874	392
9	3296	90.873588771961	393
9	3304	90.924591159141	394
9	3318	91.548333326979	395
9	3333	91.966975819534	396
9	3338	92.067163682364	397
9	3343	92.150491555206	398
9	3349	92.267935748139	399
9	3353	92.313459474671	400
9	3375	92.957832678196	401
9	3377	92.999609732279	402
9	3384	93.120026708654	403
9	3407	94.088769563359	404
9	3417	94.500590273699	405
9	3421	94.540783445953	406
9	3433	94.677577048117	407
9	3457	95.62601230772	408
9	3467	95.992224473933	409
9	3473	96.134319546376	410
9	3478	96.290776028089	411
9	3484	96.388023866424	412
9	3526	97.800706490873	413
9	3532	97.956781276398	414
9	3542	98.253378200345	415
9	3547	98.424288323462	416
9	3554	98.699753226335	417
9	3560	98.789617327571	418
9	3566	98.997141212579	419
9	3573	99.144071097358	420
9	3575	99.192750320805	421
9	3588	99.814181028599	422
9	3595	99.947557798489	423
9	3601	100.098145137924	424
9	3617	100.325093476228	425
9	3622	100.396299920399	426
9	3630	100.575884720589	427
9	3635	100.631727354977	428
9	3642	100.999247523372	429
9	3648	101.19947853373	430
9	3670	102.009206279412	431
9	3672	102.033568559971	432
9	3679	102.118683604648	433
9	3685	102.241787596906	434
9	3695	102.537611402022	435
9	3708	102.790377895159	436
9	3715	102.948678359881	437
9	3734	103.696324146574	438
9	3737	103.729034798406	439
9	3759	104.605702098937	440
9	3763	104.666066606577	441
9	3775	105.087063687214	442
9	3777	105.11871182194	443
9	3786	105.345545841168	444
9	3793	105.460795206734	445
9	3811	105.819497522757	446
9	3814	105.847986546075	447
9	3820	106.010107029153	448
9	3836	106.794348911369	449
9	3852	107.207566128501	450
9	3880	108.059290537571	451
9	3886	108.122707637528	452
9	3888	108.155163913191	453
9	3890	108.193483228982	454
9	3896	108.250769566389	455
9	3910	108.661695303664	456
9	3914	108.740011024063	457
9	3916	108.778516936768	458
9	3933	109.5911446757	459
9	3942	109.92571427093	460
9	3951	110.104631272622	461
9	3954	110.128618498917	462
9	3957	110.190404591036	463
9	3963	110.452178282389	464
9	3965	110.489348532024	465
9	3970	110.668657435962	466
9	3972	110.718123667456	467
9	3985	111.234659627419	468
9	4010	111.755182605929	469
9	4014	111.768622319103	470
9	4021	111.829255327648	471
9	4032	112.225963664205	472
9	4036	112.403816666052	473
9	4044	112.697909246478	474
9	4055	113.055845772131	475
9	4067	113.428804709859	476
9	4069	113.458566313075	477
9	4073	113.488824299555	478
9	4075	113.516670527682	479
9	4082	113.647201279765	480
9	4101	114.179314569144	481
9	4123	115.02238618077	482
9	4141	115.893476262999	483
9	4146	116.091860077105	484
9	4153	116.278261707027	485
9	4162	116.586098713386	486
9	4166	116.621149536331	487
9	4171	116.663609297121	488
9	4174	116.705074585421	489
9	4180	116.778859780172	490
9	4189	117.215580670207	491
9	4194	117.307852889285	492
9	4200	117.380516977125	493
9	4209	117.749460213127	494
9	4210	117.758782332599	495
9	4216	117.954067322022	496
9	4223	118.120458752306	497
9	4231	118.37993576505	498
9	4241	118.595983626598	499
9	4252	118.82788328241	500
9	4256	118.844874041761	501
9	4264	118.914225419022	502
9	4279	119.260378770817	503
9	4286	119.532303455424	504
9	4296	119.745612130219	505
9	4301	119.824757488476	506
9	4331	120.668382886983	507
9	4341	120.775180393699	508
9	4363	121.552123615537	509
9	4370	121.69911234814	510
9	4375	121.850593892735	511
9	4384	122.205570325649	512
9	4389	122.322399227373	513
9	4396	122.527581777237	514
9	4406	122.8596255036	515
9	4408	122.885843837547	516
9	4416	123.101922988852	517
9	4421	123.240274513263	518
9	4439	123.842650899703	519
9	4441	123.857243214292	520
9	4442	123.86939176091	521
9	4445	123.894696496429	522
9	4454	124.016570309372	523
9	4458	124.219126047409	524
9	4490	125.403287742292	525
9	4495	125.524924747575	526
9	4497	125.563273076443	527
9	4509	125.805838329858	528
9	4511	125.833094701883	529
9	4516	125.95654225048	530
9	4523	126.107949639144	531
9	4525	126.149994085816	532
9	4536	126.605884031792	533
9	4538	126.635928468264	534
9	4543	126.685370037163	535
9	4550	126.853658679308	536
9	4553	126.889858612832	537
9	4559	126.999500834797	538
9	4561	127.042234106424	539
9	4569	127.227769698402	540
9	4575	127.506421327589	541
9	4582	127.664872072573	542
9	4593	128.050104478274	543
9	4603	128.2641695773	544
9	4615	128.632635343612	545
9	4631	129.00139156494	546
9	4637	129.304601868581	547
9	4642	129.371988377363	548
9	4656	129.875318716712	549
9	4667	130.349709358143	550
9	4689	130.872194301482	551
9	4699	131.212540338096	552
9	4714	131.646105261376	553
9	4717	131.729811564041	554
9	4722	131.828881583469	555
9	4730	131.950305815644	556
9	4737	132.043723430329	557
9	4745	132.101840066179	558
9	4750	132.19368975427	559
9	4758	132.375485541698	560
9	4763	132.473392962252	561
9	4769	132.591868175515	562
9	4771	132.624866814893	563
9	4776	132.784758302309	564
9	4781	132.969335255068	565
9	4790	133.182807983389	566
9	4792	133.206247476195	567
9	4802	133.378999626675	568
9	4815	133.669735447584	569
9	4820	133.7848683052	570
9	4823	133.800717887774	571
9	4835	134.201966573576	572
9	4841	134.315384255385	573
9	4846	134.359573086129	574
9	4854	134.699639284215	575
9	4860	134.923757543964	576
9	4870	135.247748802977	577
9	4876	135.406027601727	578
9	4880	135.458909238395	579
9	4888	135.655510709775	580
9	4896	135.899933203792	581
9	4901	136.065703648642	582
9	4903	136.119001968492	583
9	4905	136.170016837411	584
9	4923	136.86781443961	585
9	4925	136.890069061983	586
9	4931	137.104946006399	587
9	4944	137.552129493716	588
9	4951	137.72649451609	589
9	4956	137.779035687003	590
9	4960	138.02404271306	591
9	4964	138.047454394984	592
9	4965	138.059996555546	593
9	4977	138.517762283066	594
9	4985	138.817339876013	595
9	4994	139.109152002313	596
9	5000	139.285659988954	597
9	5006	139.432601413026	598
9	5020	139.813039899092	599
9	5026	139.968654715656	600
9	5032	140.131239980195	601
9	5042	140.283195361045	602
9	5048	140.415445741079	603
9	5059	140.844569448446	604
9	5061	140.878156746709	605
9	5071	141.194292713387	606
9	5073	141.216521515616	607
9	5086	141.350110472989	608
9	5089	141.371460122308	609
9	5102	141.762962925455	610
9	5108	141.954473926185	611
9	5114	142.082097085513	612
9	5121	142.370519871282	613
9	5128	142.578082325536	614
9	5139	142.754469313397	615
9	5144	142.892193178168	616
9	5149	143.090137787936	617
9	5158	143.397546893274	618
9	5167	143.564113616621	619
9	5173	143.668825097834	620
9	5185	144.072214152383	621
9	5196	144.443508210372	622
9	5201	144.604723221579	623
9	5203	144.648559067792	624
9	5207	144.689258763899	625
9	5213	144.739977207823	626
9	5223	145.10446810221	627
9	5230	145.398210525732	628
9	5243	145.540456318488	629
9	5253	145.803161652679	630
9	5260	145.908387310386	631
9	5263	145.937218818471	632
9	5279	146.251327324312	633
9	5281	146.280461647011	634
9	5297	146.503575732456	635
9	5304	146.782770701534	636
9	5308	146.881470568906	637
9	5318	147.226657405937	638
9	5322	147.270633234435	639
9	5326	147.330371583585	640
9	5334	147.635269573502	641
9	5339	147.814634817107	642
9	5344	147.884483933217	643
9	5365	148.797082559898	644
9	5370	148.856663395097	645
9	5384	149.154956569723	646
9	5391	149.275385990399	647
9	5396	149.382348455677	648
9	5402	149.459295871004	649
9	5409	149.724108601724	650
9	5414	149.875419866662	651
9	5420	150.024314941543	652
9	5436	150.719889033029	653
9	5446	151.074121480978	654
9	5452	151.27666498511	655
9	5459	151.492446636323	656
9	5470	151.706048310425	657
9	5473	151.729655828038	658
9	5479	151.789753476211	659
9	5483	151.938574885866	660
9	5490	152.145178636872	661
9	5497	152.294884429034	662
9	5504	152.540581704465	663
9	5508	152.592175180003	664
9	5517	152.854750532931	665
9	5525	153.280087427268	666
9	5550	153.951498450419	667
9	5561	154.15893417394	668
9	5570	154.394352508023	669
9	5572	154.423315749037	670
9	5578	154.608407783528	671
9	5583	154.866503792102	672
9	5585	154.8878749711	673
9	5603	155.159652728056	674
9	5608	155.200295177024	675
9	5615	155.313969068854	676
9	5620	155.428907135759	677
9	5635	155.930650997421	678
9	5644	156.382803108409	679
9	5649	156.422049377705	680
9	5657	156.58984243537	681
9	5670	157.006883625381	682
9	5675	157.051706567902	683
9	5687	157.40974199911	684
9	5703	157.779454192835	685
9	5705	157.809721601207	686
9	5707	157.844849063939	687
9	5712	158.031938619236	688
9	5727	158.452986065573	689
9	5747	159.132095378739	690
9	5758	159.387258086583	691
9	5764	159.671541091008	692
9	5766	159.695380871382	693
9	5768	159.732248550786	694
9	5779	160.142157055385	695
9	5783	160.258644185665	696
9	5801	161.011201059121	697
9	5819	161.695728094745	698
9	5832	162.271925732994	699
9	5846	162.746213704089	700
9	5850	162.825441256825	701
9	5855	162.865427499386	702
9	5861	162.917789174146	703
9	5869	163.144238786131	704
9	5874	163.19194056424	705
9	5876	163.2322251856	706
9	5880	163.36445618264	707
9	5885	163.526809883485	708
9	5903	164.222835707969	709
9	5905	164.308342678746	710
9	5923	164.952353675073	711
9	5954	165.77149282801	712
9	5981	166.99124566597	713
9	5996	167.150954062187	714
9	6002	167.322075862089	715
9	6004	167.351557851966	716
9	6018	167.703730699786	717
9	6036	168.337301494627	718
9	6051	169.087143463056	719
9	6061	169.283229811839	720
9	6064	169.31829515835	721
9	6070	169.479900373603	722
9	6090	170.276111986564	723
9	6105	170.710338830592	724
9	6110	170.758378126332	725
9	6117	170.983578642765	726
9	6124	171.144343018468	727
9	6133	171.330407566968	728
9	6139	171.516298226121	729
9	6154	171.751153082936	730
9	6156	171.779216012388	731
9	6157	171.783407015026	732
9	6170	172.346981688666	733
9	6176	172.591548316607	734
9	6182	172.671512173245	735
9	6188	172.764688070379	736
9	6195	172.827014432511	737
9	6206	173.146901547662	738
9	6217	173.517035305851	739
9	6218	173.522901763119	740
9	6222	173.572393269888	741
9	6226	173.605332614064	742
9	6227	173.609111619673	743
9	6230	173.639804323098	744
9	6231	173.641716643103	745
9	6238	173.783864292921	746
9	6243	173.944001586788	747
9	6248	174.070597508946	748
9	6253	174.174573733021	749
9	6257	174.361940412854	750
9	6263	174.431593325768	751
9	6283	175.131351644745	752
9	6293	175.534038536156	753
9	6295	175.55518841458	754
9	6320	176.121844675735	755
9	6325	176.237095380738	756
9	6331	176.434325880182	757
9	6337	176.604141542684	758
9	6339	176.619566906854	759
9	6342	176.668646010941	760
9	6359	177.029812938996	761
9	6369	177.218853651549	762
9	6376	177.253678461279	763
9	6385	177.430606612829	764
9	6386	177.445906378602	765
9	6392	177.509339011399	766
9	6400	177.777320551482	767
9	6405	177.84061569923	768
9	6431	178.820907872026	769
9	6439	179.129858755784	770
9	6446	179.260423219428	771
9	6451	179.453158814365	772
9	6457	179.584551538598	773
9	6472	180.09149281755	774
9	6479	180.404878990593	775
9	6484	180.54513795971	776
9	6489	180.603119844474	777
9	6501	181.107433753425	778
9	6506	181.1918411755	779
9	6512	181.444513010732	780
9	6521	181.711266672609	781
9	6527	181.887894539878	782
9	6537	182.211473663681	783
9	6546	182.557679347908	784
9	6551	182.699003694045	785
9	6578	184.137925716915	786
9	6586	184.379425630311	787
9	6595	184.86455578176	788
9	6611	185.443158686341	789
9	6616	185.548870286214	790
9	6628	185.820966516298	791
9	6637	185.940283266267	792
9	6645	186.06793097026	793
9	6656	186.280779859772	794
9	6669	187.018490646964	795
9	6688	187.867896844531	796
9	6694	188.073331416074	797
9	6698	188.129774407993	798
9	6702	188.167152723437	799
9	6709	188.289937962645	800
9	6714	188.332331521739	801
9	6720	188.726273273952	802
9	6732	188.977568363711	803
9	6735	189.001623440745	804
9	6743	189.117956633787	805
9	6755	189.438617595484	806
9	6760	189.597435460968	807
9	6777	190.49215154103	808
9	6783	190.591039558927	809
9	6789	190.65723765755	810
9	6791	190.704111689782	811
9	6798	191.023752817817	812
9	6803	191.08035690234	813
9	6811	191.520642050885	814
9	6819	191.798569968164	815
9	6835	192.388184919663	816
9	6856	193.377582171564	817
9	6862	193.430165284292	818
9	6868	193.484135647989	819
9	6872	193.680851783462	820
9	6880	193.881826797999	821
9	6903	194.898950575449	822
9	6905	194.92158318555	823
9	6910	195.006450497543	824
9	6919	195.297835364748	825
9	6926	195.348802373945	826
9	6939	195.59182425113	827
9	6959	196.015338797477	828
9	6961	196.049999826683	829
9	6973	196.302599617624	830
9	6975	196.33042818301	831
9	7009	197.519974692035	832
9	7015	197.716195516314	833
9	7025	197.991186478668	834
9	7031	198.116747385722	835
9	7038	198.400463130371	836
9	7040	198.430937923577	837
9	7048	198.565291424683	838
9	7060	198.848952306536	839
9	7069	199.096507727306	840
9	7075	199.226926864149	841
9	7082	199.303194981085	842
9	7087	199.401402101389	843
9	7105	199.749006847097	844
9	7108	199.792273412332	845
9	7128	200.522368079119	846
9	7135	200.711830132392	847
9	7140	200.870344934824	848
9	7150	201.248820296461	849
9	7157	201.316261737148	850
9	7170	201.666446806642	851
9	7183	202.115966161182	852
9	7188	202.176316531289	853
9	7191	202.216324070893	854
9	7202	202.850085835374	855
9	7223	203.382249727529	856
9	7241	203.824168601905	857
9	7260	204.57052245897	858
9	7271	204.698598822893	859
9	7273	204.722722478876	860
9	7275	204.744978249682	861
9	7280	204.896119359346	862
9	7305	205.573102432874	863
9	7312	205.69252386755	864
9	7320	205.904273747035	865
9	7328	206.155324118261	866
9	7332	206.198984177159	867
9	7333	206.205157477217	868
9	7341	206.38478311877	869
9	7346	206.442719472773	870
9	7353	206.694862723592	871
9	7359	206.772711287143	872
9	7374	207.116179765297	873
9	7382	207.203697633822	874
9	7393	207.613713107292	875
9	7400	207.76215177956	876
9	7408	208.026290265518	877
9	7420	208.189829787044	878
9	7424	208.208231726413	879
9	7425	208.215762881754	880
9	7429	208.236147232353	881
9	7431	208.244363393878	882
9	7434	208.269409084867	883
9	7440	208.361531392316	884
9	7448	208.499399121914	885
9	7469	209.296394666109	886
9	7473	209.320996897109	887
9	7478	209.455374874933	888
9	7483	209.625691253613	889
9	7495	210.251224606397	890
9	7506	210.784008822269	891
9	7516	211.100213496398	892
9	7526	211.708718487108	893
9	7538	212.090290528825	894
9	7564	213.031383563041	895
9	7570	213.132450883708	896
9	7578	213.335997064269	897
9	7583	213.381562355575	898
9	7605	214.182195053541	899
9	7611	214.245941641747	900
9	7625	214.669574597508	901
9	7626	214.676875347841	902
9	7637	214.967755511042	903
9	7654	215.778602776958	904
9	7674	216.414014760166	905
9	7688	216.895004248024	906
9	7692	216.982525816109	907
9	7698	217.130464160249	908
9	7709	217.488246753556	909
9	7725	217.714165214464	910
9	7740	218.568658082147	911
9	7742	218.595833317443	912
9	7754	218.822644350718	913
9	7767	219.302508947512	914
9	7773	219.41705352576	915
9	7777	219.506014528957	916
9	7794	219.770127175141	917
9	7796	219.821316703507	918
9	7804	219.935286259276	919
9	7807	219.950955099121	920
9	7813	220.039246476937	921
9	7817	220.077564980352	922
9	7820	220.120559255687	923
9	7825	220.231542076675	924
9	7827	220.259017803231	925
9	7830	220.309943417056	926
9	7848	220.805685728425	927
9	7850	220.840805950021	928
9	7861	221.061264517945	929
9	7865	221.172909905155	930
9	7872	221.317909234274	931
9	7876	221.345304824416	932
9	7881	221.426272045547	933
9	7889	221.622335227182	934
9	7905	222.392521782461	935
9	7919	223.383514729827	936
9	7924	223.513194242182	937
9	7926	223.542048403669	938
9	7928	223.56937049976	939
9	7947	224.487328724255	940
9	7965	225.021810977958	941
9	7986	226.092051365567	942
9	7997	226.217671570009	943
9	8004	226.426665331779	944
9	8007	226.478688038704	945
9	8012	226.530890465895	946
9	8016	226.622284700166	947
9	8021	226.76403919641	948
9	8023	226.799682108295	949
9	8026	226.856033604244	950
9	8032	227.065282714834	951
9	8036	227.188538919214	952
9	8039	227.219406381523	953
9	8048	227.537248661946	954
9	8061	228.031380273458	955
9	8069	228.438343070584	956
9	8074	228.563896577432	957
9	8078	228.600356078646	958
9	8090	229.102178582932	959
9	8096	229.146979368885	960
9	8099	229.175834387504	961
9	8107	229.271340588179	962
9	8113	229.472740513831	963
9	8132	230.236443086773	964
9	8149	230.930615926028	965
9	8153	230.9483557316	966
9	8159	231.124090107779	967
9	8163	231.245925418781	968
9	8168	231.405512138077	969
9	8182	231.860224231026	970
9	8206	232.720707826265	971
9	8215	233.155972606676	972
9	8217	233.201699338277	973
9	8225	233.382628970043	974
9	8230	233.483381718125	975
9	8233	233.505325773396	976
9	8236	233.53245230079	977
9	8245	233.699306421334	978
9	8252	234.021763062824	979
9	8267	234.359433318084	980
9	8284	234.889617090161	981
9	8292	235.253117978595	982
9	8298	235.368196485472	983
9	8305	235.709403689882	984
9	8314	235.997951955226	985
9	8319	236.082546741857	986
9	8324	236.139083515789	987
9	8333	236.329455386222	988
9	8348	236.584772940692	989
9	8354	236.654608885982	990
9	8360	236.776365923192	991
9	8369	236.834854546447	992
9	8403	237.784889815717	993
9	8410	237.97787723948	994
9	8441	239.385411261736	995
9	8447	239.540304911591	996
9	8451	239.592182998563	997

