version 2
run General-0-20231001-03:35:48-13270
attr configname General
attr datetime 20231001-03:35:48
attr experiment General
attr inifile omnetpp.ini
attr iterationvars ""
attr iterationvarsf ""
attr measurement ""
attr network Multihop
attr processid 13270
attr repetition 0
attr replication #0
attr resultdir results
attr runnumber 0
attr seedset 0
param Multihop.node[*].transmissionTime "uniform(1s, 2s)"
param Multihop.node[*].delayTime "uniform(0.01s, 0.2s)"
param Multihop.node[*].lossProbability 0.2

vector 0 Multihop.node[0] txVector ETV
vector 1 Multihop.node[2] rxVector ETV
vector 2 Multihop.node[2] txVector ETV
vector 3 Multihop.node[4] rxVector ETV
vector 4 Multihop.node[4] txVector ETV
vector 5 Multihop.node[6] rxVector ETV
vector 6 Multihop.node[6] txVector ETV
vector 7 Multihop.node[7] rxVector ETV
vector 8 Multihop.node[1] rxVector ETV
vector 9 Multihop.node[1] txVector ETV
vector 10 Multihop.node[3] rxVector ETV
vector 11 Multihop.node[3] txVector ETV
vector 12 Multihop.node[5] rxVector ETV
vector 13 Multihop.node[5] txVector ETV
0	0	0	1
0	1	0.114274565438	2
0	6	0.236915042552	3
0	8	0.25769050794	4
0	12	0.358886170506	5
0	15	0.438852062605	6
0	19	0.536533141537	7
0	22	0.648634054901	8
0	24	0.805738455337	9
0	25	0.819308516961	10
0	30	0.871549580209	11
0	40	1.008970776212	12
0	44	1.109163302186	13
0	47	1.145418062592	14
0	52	1.273758820312	15
0	53	1.287556478056	16
0	59	1.381481553135	17
0	65	1.488185655717	18
0	72	1.553172813002	19
0	79	1.706833084375	20
0	83	1.77334610519	21
0	92	1.921144418661	22
0	96	1.987818060948	23
0	104	2.12192621588	24
0	108	2.160321393767	25
0	111	2.323711996227	26
0	113	2.346853724371	27
0	121	2.521466366311	28
0	123	2.563953818937	29
0	132	2.689521863779	30
0	135	2.739392177052	31
0	138	2.842579349404	32
0	139	2.863298832978	33
0	145	3.005604095267	34
0	149	3.130942656848	35
0	152	3.184494328223	36
0	156	3.314000879523	37
0	161	3.453177975953	38
0	166	3.645093638591	39
0	169	3.766582664204	40
0	173	3.809815349927	41
0	179	3.95701067547	42
0	182	4.149778588337	43
0	186	4.265351943413	44
0	191	4.372706701858	45
0	196	4.476237667429	46
0	197	4.633169610254	47
0	206	4.828278757178	48
0	211	4.915441649801	49
0	213	4.982789515916	50
0	214	5.054598474661	51
0	218	5.245643902184	52
0	224	5.384352148832	53
0	230	5.484882817571	54
0	234	5.620290391291	55
0	235	5.701314887797	56
0	236	5.82295881878	57
0	239	5.884794979199	58
0	244	6.030678941476	59
0	245	6.130983935919	60
0	249	6.289877049789	61
0	251	6.361757155427	62
0	253	6.396345499585	63
0	255	6.422110131079	64
0	264	6.513108247894	65
0	269	6.629092394813	66
0	270	6.669381142956	67
0	275	6.798871846454	68
0	276	6.991078563527	69
0	280	7.068598644949	70
0	282	7.258205936303	71
0	283	7.433408757596	72
0	284	7.529699613416	73
0	285	7.601772781891	74
0	290	7.655994167003	75
0	293	7.708014740274	76
0	299	7.904526279516	77
0	304	7.973949405135	78
0	310	8.146198027	79
0	315	8.296547732054	80
0	325	8.495029868447	81
0	330	8.562878865302	82
0	333	8.751518707069	83
0	334	8.945432165555	84
0	337	9.144368315294	85
0	343	9.239396330413	86
0	349	9.290346805185	87
0	352	9.305386089913	88
0	355	9.324637245138	89
0	367	9.400847683128	90
0	371	9.487976724483	91
0	372	9.616200626137	92
0	374	9.679223535416	93
0	377	9.798880182299	94
0	379	9.852026136794	95
0	383	10.035836362885	96
0	385	10.16907004171	97
0	390	10.282136872883	98
0	392	10.460717191656	99
0	396	10.547557929726	100
0	399	10.612110588473	101
0	401	10.655317269877	102
0	405	10.695806122058	103
0	410	10.831418449964	104
0	414	10.931605367024	105
0	415	10.942194280246	106
0	421	11.024060863828	107
0	428	11.209944272059	108
0	429	11.287300423373	109
0	432	11.422134180824	110
0	437	11.621996998497	111
0	438	11.777263774128	112
0	443	11.919930985678	113
0	444	12.076816860916	114
0	448	12.268977636524	115
0	451	12.456785731585	116
0	454	12.612134676007	117
0	456	12.716712287794	118
0	459	12.758827114316	119
0	462	12.859980350334	120
0	465	12.892270307994	121
0	470	13.065053805033	122
0	476	13.193871862755	123
0	482	13.31057154623	124
0	483	13.320800984943	125
0	492	13.430395917423	126
0	493	13.44513541601	127
0	496	13.467600341172	128
0	501	13.645741201418	129
0	503	13.669119259245	130
0	509	13.745658638489	131
0	516	13.803923431914	132
0	518	13.925155525582	133
0	523	14.045167654377	134
0	528	14.214076820015	135
0	531	14.271136973478	136
0	541	14.389787264006	137
0	544	14.493639252173	138
0	546	14.518643533887	139
0	557	14.677240515262	140
0	558	14.68865949548	141
0	567	14.770366744424	142
0	571	14.896518954532	143
0	572	14.906622688996	144
0	573	14.997449017872	145
0	574	15.019524236044	146
0	578	15.046291401612	147
0	586	15.18232180618	148
0	593	15.319356916323	149
0	597	15.461246907292	150
0	601	15.539456010049	151
0	604	15.577538263605	152
0	617	15.758340871416	153
0	622	15.932870510593	154
0	627	16.037524627889	155
0	629	16.087701038802	156
0	632	16.272224863921	157
0	635	16.313477661842	158
0	642	16.431113821927	159
0	647	16.546496382637	160
0	649	16.564651979389	161
0	660	16.730456243043	162
0	663	16.781812182893	163
0	668	16.875559849485	164
0	669	17.034658657505	165
0	673	17.138061028902	166
0	675	17.201282640322	167
0	682	17.395597479231	168
0	685	17.431505309648	169
0	695	17.599961822652	170
0	696	17.784813457245	171
0	698	17.864399878543	172
0	700	17.983477338464	173
0	704	18.039908792402	174
0	715	18.182634700332	175
0	719	18.259196486254	176
0	729	18.444223006274	177
0	730	18.504693191526	178
0	731	18.517259845158	179
0	736	18.655898306465	180
0	740	18.79983843795	181
0	741	18.819542778963	182
0	743	18.951315170906	183
0	744	18.961441371858	184
0	747	19.0066764865	185
0	750	19.092294236661	186
0	753	19.177898774002	187
0	757	19.355816868014	188
0	759	19.433119584021	189
0	760	19.611273736185	190
0	762	19.640321568437	191
0	766	19.767182593031	192
0	767	19.827704662878	193
0	770	19.99505251859	194
0	774	20.114006867084	195
0	781	20.245822124282	196
0	784	20.29403036754	197
0	793	20.414837005191	198
0	796	20.604034068646	199
0	797	20.689468977694	200
0	800	20.752032426491	201
0	804	20.831093961073	202
0	806	21.009692943828	203
0	807	21.020702801429	204
0	809	21.06033860887	205
0	811	21.137754624487	206
0	812	21.151192932472	207
0	816	21.273404154203	208
0	820	21.375795850352	209
0	822	21.411550052367	210
0	831	21.573028298582	211
0	834	21.655208139916	212
0	836	21.692478567765	213
0	842	21.817171957558	214
0	843	21.834996118662	215
0	845	22.000116114512	216
0	850	22.129276649377	217
0	851	22.325903727769	218
0	855	22.524510456273	219
0	858	22.573198432613	220
0	860	22.609633757565	221
0	864	22.693385883476	222
0	869	22.826188427917	223
0	871	22.879946489524	224
0	881	23.077862594488	225
0	886	23.251564877387	226
0	892	23.356964938328	227
0	894	23.386405133388	228
0	903	23.459218430402	229
0	907	23.488262783305	230
0	917	23.616279445537	231
0	920	23.773481492384	232
0	924	23.970447250323	233
0	926	24.028175271833	234
0	929	24.05367568183	235
0	934	24.108805077132	236
0	938	24.217058138927	237
0	939	24.357470382872	238
0	944	24.423689858132	239
0	945	24.504234378381	240
0	946	24.659886678715	241
0	953	24.800736528949	242
0	958	24.948838224033	243
0	960	25.0569017276	244
0	961	25.200251419392	245
0	962	25.215988046279	246
0	971	25.326915118938	247
0	976	25.482050176541	248
0	979	25.584608320239	249
0	983	25.669892871786	250
0	986	25.826400332799	251
0	987	25.873115228919	252
0	989	26.013353986502	253
0	991	26.048846977448	254
0	1002	26.201448941072	255
0	1008	26.286881538075	256
0	1012	26.447456329711	257
0	1016	26.572889948109	258
0	1017	26.754294880059	259
0	1023	26.851452227678	260
0	1027	26.945598103461	261
0	1028	27.053403853985	262
0	1030	27.090087362366	263
0	1032	27.111090125357	264
0	1040	27.24785220174	265
0	1042	27.444674426791	266
0	1045	27.476001924138	267
0	1052	27.560264253967	268
0	1054	27.684506917374	269
0	1055	27.841173782523	270
0	1057	27.929660146879	271
0	1061	27.999939583538	272
0	1066	28.156342956184	273
0	1071	28.353031994335	274
0	1074	28.515006427006	275
0	1075	28.585696164335	276
0	1077	28.615989369674	277
0	1080	28.639749713154	278
0	1088	28.728496454608	279
0	1089	28.742323292637	280
0	1097	28.816942434845	281
0	1102	28.989228467176	282
0	1106	29.059152035549	283
0	1114	29.150057369018	284
0	1116	29.16536716595	285
0	1122	29.361690463216	286
0	1123	29.450983760177	287
0	1127	29.533766368427	288
0	1128	29.578274623532	289
0	1130	29.609597243836	290
0	1137	29.739194876388	291
0	1139	29.757319873662	292
0	1143	29.888608823535	293
0	1148	29.977482621809	294
0	1151	30.140420380174	295
0	1156	30.29433984024	296
0	1159	30.483950622445	297
0	1162	30.599437459931	298
0	1163	30.772842508592	299
0	1169	30.900276398608	300
0	1171	30.91967316435	301
0	1172	30.937521371143	302
0	1174	30.948423397681	303
0	1184	31.063946639356	304
0	1195	31.178598503783	305
0	1203	31.304194814603	306
0	1207	31.347007184213	307
0	1211	31.374890446635	308
0	1217	31.543461859464	309
0	1221	31.636403013578	310
0	1226	31.768492385974	311
0	1227	31.809946053646	312
0	1232	31.946478438232	313
0	1235	32.074636092862	314
0	1236	32.141518094939	315
0	1238	32.227611571032	316
0	1241	32.310454037346	317
0	1250	32.466121203844	318
0	1253	32.582734180834	319
0	1257	32.641117417401	320
0	1259	32.757505500362	321
0	1264	32.87994258064	322
0	1266	33.047670734931	323
0	1271	33.146159730715	324
0	1273	33.167267867137	325
0	1282	33.274129598945	326
0	1284	33.437947209816	327
0	1285	33.486320831793	328
0	1294	33.62812826574	329
0	1297	33.736007326254	330
0	1299	33.761407546962	331
0	1300	33.811232066569	332
0	1303	33.887249403677	333
0	1312	34.084702218226	334
0	1314	34.110573030226	335
0	1316	34.147345885383	336
0	1318	34.28387665374	337
0	1326	34.475799476446	338
0	1332	34.590189007092	339
0	1339	34.667815242256	340
0	1340	34.679572360639	341
0	1345	34.816173237052	342
0	1347	34.845914513757	343
0	1350	34.891783077032	344
0	1351	34.913255178013	345
0	1355	35.017776349904	346
0	1356	35.028954999438	347
0	1361	35.085527047369	348
0	1368	35.262122964976	349
0	1372	35.350738924253	350
0	1377	35.448291502574	351
0	1382	35.590933613318	352
0	1387	35.665956616674	353
0	1390	35.835209960444	354
0	1391	35.936430444366	355
0	1392	36.068764612193	356
0	1396	36.174101506302	357
0	1398	36.241653420346	358
0	1401	36.281952547611	359
0	1402	36.3429054374	360
0	1403	36.445424830889	361
0	1407	36.556478058182	362
0	1408	36.595113935476	363
0	1412	36.635941779081	364
0	1416	36.765623134101	365
0	1419	36.85578073884	366
0	1420	37.051763566342	367
0	1425	37.137038632769	368
0	1432	37.277527472335	369
0	1437	37.376437420549	370
0	1441	37.54619516649	371
0	1443	37.633843871313	372
0	1445	37.675156932429	373
0	1446	37.798318087251	374
0	1447	37.9007732449	375
0	1449	38.04235862378	376
0	1451	38.077869357499	377
0	1465	38.221755640804	378
0	1470	38.416953056119	379
0	1475	38.523619843833	380
0	1477	38.549009499221	381
0	1481	38.573598885547	382
0	1487	38.691033578538	383
0	1489	38.729020069993	384
0	1490	38.73905554563	385
0	1500	38.851567501488	386
0	1501	38.889823187745	387
0	1504	39.073375383023	388
0	1506	39.14387194086	389
0	1511	39.303788775226	390
0	1513	39.32907754051	391
0	1514	39.341672067509	392
0	1526	39.476795478959	393
0	1528	39.499645470609	394
0	1533	39.610890676116	395
0	1538	39.685424370582	396
0	1545	39.804794844319	397
0	1550	39.965171052769	398
0	1551	39.983026863779	399
0	1555	40.093764742818	400
0	1560	40.274368316704	401
0	1569	40.458417989165	402
0	1570	40.483252211975	403
0	1577	40.546667973863	404
0	1582	40.703624361624	405
0	1589	40.883649612557	406
0	1590	41.045850768535	407
0	1597	41.154340386555	408
0	1603	41.229467011878	409
0	1615	41.372247263539	410
0	1619	41.505875972713	411
0	1620	41.570304254036	412
0	1624	41.675606634017	413
0	1626	41.721756130777	414
0	1627	41.750423614726	415
0	1634	41.829985948972	416
0	1639	41.88926697374	417
0	1650	42.0146493209	418
0	1651	42.093260874591	419
0	1652	42.122413733361	420
0	1657	42.188235494363	421
0	1663	42.286488660794	422
0	1665	42.346672549698	423
0	1668	42.511639891175	424
0	1669	42.565951261813	425
0	1673	42.747747784799	426
0	1680	42.896027647182	427
0	1682	42.911782444932	428
0	1683	42.968871788811	429
0	1685	43.015519122584	430
0	1688	43.0782285504	431
0	1693	43.244952116169	432
0	1698	43.359161983084	433
0	1702	43.537012820212	434
0	1710	43.670167452994	435
0	1712	43.70764554977	436
0	1717	43.796095906972	437
0	1722	43.942241229311	438
0	1723	44.011753577973	439
0	1724	44.027065099605	440
0	1727	44.055845831273	441
0	1728	44.069083567361	442
0	1736	44.252984205695	443
0	1740	44.334695939823	444
0	1745	44.470509045244	445
0	1747	44.509821822488	446
0	1752	44.663620047475	447
0	1757	44.797000865677	448
0	1759	44.97009651147	449
0	1761	45.158521399313	450
0	1763	45.178876048302	451
0	1770	45.299265253305	452
0	1774	45.439899554042	453
0	1780	45.574821721931	454
0	1782	45.648402397983	455
0	1785	45.690726356908	456
0	1791	45.795854990984	457
0	1793	45.973546327095	458
0	1802	46.17134353194	459
0	1805	46.269149448768	460
0	1808	46.448204255389	461
0	1810	46.478312301287	462
0	1813	46.531357980362	463
0	1820	46.677402524474	464
0	1823	46.771546741161	465
0	1828	46.866720349368	466
0	1836	47.031300867939	467
0	1840	47.119110965918	468
0	1841	47.240126351014	469
0	1843	47.307924479594	470
0	1846	47.458206183639	471
0	1847	47.554248743754	472
0	1852	47.741073279272	473
0	1858	47.823648354759	474
0	1863	47.865214265376	475
0	1871	48.00699669584	476
0	1875	48.084073610279	477
0	1877	48.176653788673	478
0	1878	48.33408589343	479
0	1880	48.35855347423	480
0	1884	48.480311812671	481
0	1888	48.620707113884	482
0	1889	48.64461460112	483
0	1892	48.683896862893	484
0	1899	48.883360988829	485
0	1900	48.981696201689	486
0	1904	49.107421270849	487
0	1907	49.181284656711	488
0	1917	49.368249248997	489
0	1918	49.404208753039	490
0	1919	49.484273314194	491
0	1921	49.676968632706	492
0	1923	49.692851495766	493
0	1930	49.874369509588	494
0	1932	49.936360788117	495
0	1934	50.008873857895	496
0	1942	50.086802583502	497
0	1943	50.227942727634	498
0	1946	50.40260823678	499
0	1948	50.431858688875	500
0	1953	50.601531776232	501
0	1961	50.794644058515	502
0	1967	50.960115885817	503
0	1968	51.051409130796	504
0	1975	51.244578852971	505
0	1982	51.36281749446	506
0	1985	51.459449484009	507
0	1986	51.48994092363	508
0	1990	51.573772872268	509
0	1997	51.720443020142	510
0	2001	51.793302005006	511
0	2002	51.810337755969	512
0	2004	51.83435728248	513
0	2007	51.964605493567	514
0	2012	52.127149097934	515
0	2019	52.32148955616	516
0	2028	52.48165422306	517
0	2030	52.601411811584	518
0	2033	52.792222014263	519
0	2034	52.803705955025	520
0	2040	52.953543202112	521
0	2047	53.036681544032	522
0	2048	53.075992464305	523
0	2055	53.151763599972	524
0	2058	53.216738565225	525
0	2059	53.27195109556	526
0	2062	53.453256374384	527
0	2063	53.470509397907	528
0	2065	53.498965716681	529
0	2073	53.660763118877	530
0	2074	53.675502788133	531
0	2076	53.68828550734	532
0	2083	53.843168034883	533
0	2087	53.956933257006	534
0	2091	54.114864266632	535
0	2092	54.162896696707	536
0	2093	54.291252773763	537
0	2094	54.323044354089	538
0	2097	54.447680397862	539
0	2100	54.618131844305	540
0	2105	54.809800313114	541
0	2111	54.901096697518	542
0	2112	55.049919869989	543
0	2117	55.155377055584	544
0	2118	55.176246491971	545
0	2128	55.270981297698	546
0	2131	55.440297929424	547
0	2133	55.566238410192	548
0	2134	55.71827792012	549
0	2138	55.805894652676	550
0	2141	55.823328614113	551
0	2153	55.992259513395	552
0	2155	56.094871155793	553
0	2162	56.289177051583	554
0	2166	56.42599223733	555
0	2167	56.510013317434	556
0	2170	56.582123177024	557
0	2171	56.736092688602	558
0	2173	56.757739818075	559
0	2178	56.831303250135	560
0	2180	56.917706169353	561
0	2183	57.110747309122	562
0	2184	57.144394825483	563
0	2186	57.169722859178	564
0	2188	57.216692018021	565
0	2190	57.287201553775	566
0	2197	57.412225745244	567
0	2200	57.605553340705	568
0	2201	57.63316717214	569
0	2204	57.717477124471	570
0	2214	57.881225046837	571
0	2216	58.079308437833	572
0	2218	58.256474917752	573
0	2222	58.334524719403	574
0	2229	58.505036383653	575
0	2233	58.595257240338	576
0	2235	58.612257369724	577
0	2238	58.725351564069	578
0	2240	58.880270953839	579
0	2244	58.970120228035	580
0	2245	59.051339930745	581
0	2249	59.199852877082	582
0	2255	59.241223421266	583
0	2260	59.280806568092	584
0	2264	59.45045826717	585
0	2265	59.516163853369	586
0	2267	59.586259325805	587
0	2270	59.760430287285	588
0	2272	59.861871017212	589
0	2274	60.013501205408	590
0	2276	60.03857241324	591
0	2281	60.191796935427	592
0	2283	60.220779468627	593
0	2292	60.304797170554	594
0	2295	60.49045315944	595
0	2298	60.633867829161	596
0	2303	60.773529448037	597
0	2304	60.869267321434	598
0	2307	61.065403555485	599
0	2312	61.236816877197	600
0	2317	61.34387943381	601
0	2318	61.369868753185	602
0	2322	61.498929736759	603
0	2324	61.535607037158	604
0	2336	61.682743831594	605
0	2338	61.76070385807	606
0	2348	61.90547075986	607
0	2355	62.011980470967	608
0	2359	62.111530739098	609
0	2364	62.240587291237	610
0	2371	62.34029611458	611
0	2372	62.513768900637	612
0	2373	62.676434755076	613
0	2377	62.828271817688	614
0	2378	62.911351482826	615
0	2381	62.976171233752	616
0	2385	63.166390075397	617
0	2386	63.246981613417	618
0	2391	63.322827415848	619
0	2394	63.367592778788	620
0	2398	63.42327799751	621
0	2400	63.494351329667	622
0	2403	63.599861591138	623
0	2408	63.768416293351	624
0	2411	63.855789963537	625
0	2418	64.042962147511	626
0	2421	64.099274988213	627
0	2426	64.285257578216	628
0	2427	64.303721970274	629
0	2431	64.352308532822	630
0	2443	64.472584773538	631
0	2450	64.511947301345	632
0	2456	64.587344945085	633
0	2457	64.61383858311	634
0	2464	64.776234028507	635
0	2466	64.869814847242	636
0	2469	64.9119082942	637
0	2476	64.986619937562	638
0	2484	65.084883468915	639
0	2486	65.177768036484	640
0	2489	65.25204655476	641
0	2492	65.333748206027	642
0	2495	65.520836537076	643
0	2496	65.534121570784	644
0	2501	65.691482690823	645
0	2506	65.807120406578	646
0	2515	66.005340881119	647
0	2516	66.103558027213	648
0	2518	66.259046993411	649
0	2520	66.305913231633	650
0	2522	66.449150483533	651
0	2523	66.642432250557	652
0	2525	66.800067194001	653
0	2527	66.814060130985	654
0	2534	66.986385224561	655
0	2536	67.01860235606	656
0	2538	67.03367956282	657
0	2542	67.080646880308	658
0	2551	67.260987996901	659
0	2553	67.36399246718	660
0	2560	67.559395167799	661
0	2562	67.65075928721	662
0	2567	67.819615272483	663
0	2570	67.873029067041	664
0	2577	68.017963417482	665
0	2583	68.180422826966	666
0	2585	68.273332645395	667
0	2587	68.420616107809	668
0	2590	68.50998961095	669
0	2592	68.547516070327	670
0	2595	68.580765464999	671
0	2600	68.648300184022	672
0	2607	68.733119950978	673
0	2609	68.749761091232	674
0	2614	68.8143917398	675
0	2620	68.889458736475	676
0	2625	69.009481568567	677
0	2631	69.116768140337	678
0	2638	69.176936114729	679
0	2642	69.273931184789	680
0	2646	69.326974836223	681
0	2649	69.393503404111	682
0	2654	69.51588476725	683
0	2656	69.659539864271	684
0	2660	69.699100809063	685
0	2665	69.783550545348	686
0	2673	69.947949512161	687
0	2675	70.112077546732	688
0	2679	70.156144755084	689
0	2681	70.289466961754	690
0	2688	70.466728128131	691
0	2694	70.579484976611	692
0	2701	70.652483239436	693
0	2703	70.747916150115	694
0	2705	70.763162818436	695
0	2708	70.856342015608	696
0	2712	71.021725370716	697
0	2713	71.182813855086	698
0	2719	71.301663346936	699
0	2721	71.312905772324	700
0	2724	71.381657850833	701
0	2728	71.554865289274	702
0	2729	71.608439205062	703
0	2734	71.792670245118	704
0	2737	71.935835966671	705
0	2741	72.034042005931	706
0	2745	72.109430094877	707
0	2748	72.136132837789	708
0	2756	72.280422124957	709
0	2758	72.321273250441	710
0	2759	72.380849786073	711
0	2763	72.533329428181	712
0	2768	72.674335872918	713
0	2770	72.848996989292	714
0	2771	72.867879809791	715
0	2775	72.889194679908	716
0	2781	72.921976421918	717
0	2783	73.054177538168	718
0	2786	73.084293730329	719
0	2795	73.21619654068	720
0	2798	73.279389978668	721
0	2803	73.340467975584	722
0	2806	73.408188378443	723
0	2811	73.459626115751	724
0	2812	73.472307432226	725
0	2822	73.571715332649	726
0	2829	73.733452893945	727
0	2831	73.895054485207	728
0	2832	73.912998498648	729
0	2839	73.962140723856	730
0	2843	73.999219672361	731
0	2853	74.091211839453	732
0	2855	74.103063058762	733
0	2865	74.272056508644	734
0	2867	74.300138474712	735
0	2878	74.445346148007	736
0	2879	74.579409876221	737
0	2880	74.75592923979	738
0	2881	74.768850471158	739
0	2888	74.860737281541	740
0	2891	74.904414755564	741
0	2904	75.031652969792	742
0	2906	75.077962197561	743
0	2911	75.173335086496	744
0	2916	75.233241324096	745
0	2920	75.309080050024	746
0	2924	75.380805792869	747
0	2930	75.504962513423	748
0	2933	75.545519505033	749
0	2939	75.621257568504	750
0	2944	75.745484331156	751
0	2947	75.939304607358	752
0	2948	76.10492444269	753
0	2952	76.298360683588	754
0	2953	76.468198956832	755
0	2958	76.615304761081	756
0	2959	76.801411708204	757
0	2960	76.867852542316	758
0	2967	77.038320055494	759
0	2972	77.110618817221	760
0	2974	77.230051058372	761
0	2979	77.41577658792	762
0	2980	77.427310272697	763
0	2981	77.477945758735	764
0	2982	77.640537243776	765
0	2984	77.700824501873	766
0	2992	77.840005240403	767
0	2993	77.976636119925	768
0	2994	77.989117126921	769
0	3000	78.112243750628	770
0	3006	78.242070583186	771
0	3010	78.374124936878	772
0	3012	78.51971744596	773
0	3015	78.655466154427	774
0	3016	78.677386092136	775
0	3019	78.766719873517	776
0	3021	78.796764328077	777
0	3030	78.9775955847	778
0	3035	79.135301274508	779
0	3039	79.314737589038	780
0	3041	79.427387067059	781
0	3047	79.5548320943	782
0	3049	79.736225081242	783
0	3050	79.768955682383	784
0	3052	79.839811585599	785
0	3053	79.95145205189	786
0	3054	80.035512427124	787
0	3057	80.197615887765	788
0	3064	80.394895573615	789
0	3065	80.584457829893	790
0	3067	80.670676267438	791
0	3068	80.759064196446	792
0	3070	80.872294374539	793
0	3071	80.943225249229	794
0	3073	80.978442266148	795
0	3075	81.14868885396	796
0	3076	81.183516643249	797
0	3077	81.305822159668	798
0	3079	81.45864041886	799
0	3083	81.596754972655	800
0	3086	81.640037036636	801
0	3087	81.654538911849	802
0	3092	81.80307530432	803
0	3094	81.845466354459	804
0	3096	81.908086019752	805
0	3102	82.070551264558	806
0	3107	82.222202574987	807
0	3115	82.358885937288	808
0	3123	82.538777132799	809
0	3128	82.677716892118	810
0	3133	82.790910096239	811
0	3137	82.910394134527	812
0	3138	83.043285139439	813
0	3140	83.235653367253	814
0	3147	83.405821948744	815
0	3148	83.477897301108	816
0	3156	83.677175063583	817
0	3163	83.824250200581	818
0	3168	83.963926228203	819
0	3173	84.135316088209	820
0	3174	84.225323952918	821
0	3179	84.309708691013	822
0	3185	84.501532161764	823
0	3192	84.660786493113	824
0	3197	84.8413131476	825
0	3198	84.929312517058	826
0	3202	85.117812056271	827
0	3207	85.23949717479	828
0	3208	85.268274988001	829
0	3212	85.418003625041	830
0	3213	85.522206922963	831
0	3214	85.536745708357	832
0	3223	85.717704978399	833
0	3226	85.785344342964	834
0	3227	85.847649022841	835
0	3230	85.959821707958	836
0	3232	86.00351646676	837
0	3234	86.166705977042	838
0	3235	86.339550210399	839
0	3236	86.350709292615	840
0	3239	86.383946693352	841
0	3241	86.394342630046	842
0	3249	86.458290553339	843
0	3255	86.562036271241	844
0	3257	86.615003498785	845
0	3261	86.779345938244	846
0	3263	86.793048630301	847
0	3267	86.977757809109	848
0	3271	87.095632697496	849
0	3278	87.29043677677	850
0	3282	87.346004456792	851
0	3289	87.542062790338	852
0	3290	87.559251256192	853
0	3296	87.654810547871	854
0	3299	87.701456065725	855
0	3301	87.721163121215	856
0	3307	87.788991834144	857
0	3312	87.849126568325	858
0	3314	87.866084211087	859
0	3318	88.000665718813	860
0	3320	88.037008925446	861
0	3321	88.149717311126	862
0	3326	88.27764242407	863
0	3327	88.362080266574	864
0	3328	88.544164184996	865
0	3329	88.559167771349	866
0	3330	88.584885234088	867
0	3331	88.750697078202	868
0	3333	88.79605663782	869
0	3334	88.826845754278	870
0	3339	89.001541721784	871
0	3341	89.188594941008	872
0	3344	89.262025486454	873
0	3353	89.35405070181	874
0	3356	89.377193205443	875
0	3360	89.447633412876	876
0	3364	89.513270083228	877
0	3367	89.600859053277	878
0	3369	89.755673975076	879
0	3370	89.841736138179	880
0	3371	89.911807384922	881
0	3372	89.992258323774	882
0	3384	90.176814064889	883
0	3394	90.308422717611	884
0	3396	90.346842628953	885
0	3401	90.511191986411	886
0	3403	90.689916518494	887
0	3409	90.842810520712	888
0	3416	90.98166014016	889
0	3422	91.088145762445	890
0	3424	91.142189129119	891
0	3433	91.25284361681	892
0	3438	91.43822195302	893
0	3440	91.475665764024	894
0	3447	91.612009588254	895
0	3448	91.760264001591	896
0	3450	91.902226753337	897
0	3451	92.026113792695	898
0	3452	92.1766259293	899
0	3457	92.321527899601	900
0	3458	92.490115607432	901
0	3460	92.547359072743	902
0	3461	92.714020778642	903
0	3467	92.862199407989	904
0	3474	92.961253698998	905
0	3475	93.053690634616	906
0	3476	93.195828561016	907
0	3478	93.213784218206	908
0	3481	93.265597726441	909
0	3484	93.351348297081	910
0	3488	93.405592424238	911
0	3497	93.536513822483	912
0	3499	93.720750078975	913
0	3501	93.88622139011	914
0	3502	94.067527830973	915
0	3507	94.186319799542	916
0	3511	94.235934479383	917
0	3516	94.349879071896	918
0	3517	94.37360614004	919
0	3526	94.531502698268	920
0	3533	94.666154704892	921
0	3542	94.838538172044	922
0	3545	94.884804285012	923
0	3546	94.921118501671	924
0	3553	95.049714351484	925
0	3555	95.131939038424	926
0	3557	95.172033417653	927
0	3563	95.333553087236	928
0	3568	95.396198795158	929
0	3571	95.539891841462	930
0	3573	95.571558998666	931
0	3577	95.754849727667	932
0	3581	95.891550654064	933
0	3582	96.082386400148	934
0	3584	96.266922245878	935
0	3586	96.426588096959	936
0	3597	96.626132118039	937
0	3598	96.648846865022	938
0	3605	96.749863503978	939
0	3607	96.7753814172	940
0	3611	96.904807394615	941
0	3612	97.027895795119	942
0	3617	97.191748439647	943
0	3623	97.356340372682	944
0	3625	97.409023099359	945
0	3630	97.605585794599	946
0	3635	97.729342658502	947
0	3637	97.746021551314	948
0	3640	97.909745092535	949
0	3646	98.005874040889	950
0	3652	98.190309466497	951
0	3653	98.23442043362	952
0	3655	98.32518276678	953
0	3657	98.494922156768	954
0	3661	98.555702893965	955
0	3668	98.664756101089	956
0	3673	98.784258976992	957
0	3678	98.942713746111	958
0	3686	99.114606373656	959
0	3690	99.276490107068	960
0	3691	99.430151322166	961
0	3695	99.482717856566	962
0	3700	99.525198271441	963
0	3705	99.68025865591	964
0	3710	99.820401760571	965
0	3711	99.982411860959	966
0	3718	100.149526580074	967
0	3724	100.32647081174	968
0	3725	100.361536365434	969
0	3727	100.462238754384	970
0	3729	100.627204084942	971
0	3733	100.757929011207	972
0	3734	100.908244766165	973
0	3736	100.925604526883	974
0	3748	101.105069525748	975
0	3749	101.174245004101	976
0	3756	101.33437831771	977
0	3759	101.500191268168	978
0	3760	101.513118493009	979
0	3762	101.596599536491	980
0	3767	101.694583334841	981
0	3768	101.707009449247	982
0	3770	101.719852310084	983
0	3782	101.864057871334	984
0	3796	102.023414154053	985
0	3797	102.190237928841	986
0	3803	102.290823333746	987
0	3805	102.316901279395	988
0	3808	102.499142154805	989
0	3810	102.614826506116	990
0	3814	102.811104478327	991
0	3815	103.000707768813	992
0	3818	103.057905030594	993
0	3826	103.143456200267	994
0	3828	103.251890530255	995
0	3830	103.444817892291	996
0	3831	103.458386744541	997
0	3836	103.63813918715	998
0	3841	103.746463265027	999
0	3848	103.927042416184	1000
0	3849	103.984977547544	1001
0	3850	104.002880979331	1002
0	3855	104.132984033073	1003
0	3858	104.207518290686	1004
0	3861	104.328197332567	1005
0	3864	104.431954321691	1006
0	3872	104.613334348367	1007
0	3874	104.634971781971	1008
0	3887	104.79167124367	1009
0	3889	104.96675272535	1010
0	3890	104.977709783385	1011
0	3892	104.999732960979	1012
0	3894	105.134595867483	1013
0	3899	105.272783063277	1014
0	3900	105.33999196114	1015
0	3904	105.405571789916	1016
0	3906	105.539090130855	1017
0	3908	105.699823459698	1018
0	3910	105.742432152579	1019
0	3913	105.809366683398	1020
0	3915	106.00683701869	1021
0	3918	106.095935112013	1022
0	3922	106.25403577935	1023
0	3925	106.400626256455	1024
0	3927	106.558382559419	1025
0	3932	106.718225529185	1026
0	3934	106.785000544521	1027
0	3935	106.941081214154	1028
0	3941	107.069984349171	1029
0	3943	107.092311695856	1030
0	3953	107.26631444054	1031
0	3958	107.398375114976	1032
0	3961	107.521864586592	1033
0	3962	107.663870053052	1034
0	3964	107.853499881099	1035
0	3965	107.875161295673	1036
0	3972	107.969630203776	1037
0	3973	107.992546581799	1038
0	3976	108.005736437699	1039
0	3986	108.099731513558	1040
0	3987	108.129289956273	1041
0	3988	108.265151506179	1042
0	3989	108.389913654421	1043
0	3995	108.540000193227	1044
0	3998	108.607458605236	1045
0	4006	108.805616778678	1046
0	4007	108.841162164016	1047
0	4008	108.961135786176	1048
0	4015	109.158654533925	1049
0	4017	109.188062404497	1050
0	4024	109.358730690501	1051
0	4029	109.48508398447	1052
0	4038	109.662447007769	1053
0	4046	109.8033810451	1054
0	4052	109.892236794122	1055
0	4055	109.976718445076	1056
0	4060	110.076899554993	1057
0	4065	110.185962428435	1058
0	4066	110.201790712153	1059
0	4081	110.344624959925	1060
0	4083	110.362195036982	1061
0	4090	110.479020287216	1062
0	4093	110.575249039504	1063
0	4094	110.588698711257	1064
0	4103	110.738375750893	1065
0	4104	110.785711602751	1066
0	4106	110.918834764835	1067
0	4107	111.016819644534	1068
0	4108	111.198578880034	1069
0	4115	111.365717879432	1070
0	4126	111.520328467172	1071
0	4129	111.571453578975	1072
0	4139	111.74757961283	1073
0	4144	111.868715094456	1074
0	4145	111.979853989221	1075
0	4146	112.139606302418	1076
0	4151	112.284382608461	1077
0	4155	112.46501881389	1078
0	4157	112.505822218399	1079
0	4163	112.550540919549	1080
0	4173	112.682009204997	1081
0	4174	112.775482692645	1082
0	4175	112.791612210584	1083
0	4182	112.866126849873	1084
0	4186	112.915625520405	1085
0	4194	112.984975426014	1086
0	4203	113.14529214813	1087
0	4210	113.255175094005	1088
0	4215	113.455139864861	1089
0	4217	113.608969522457	1090
0	4218	113.619644530444	1091
0	4222	113.644182342503	1092
0	4227	113.716450398935	1093
0	4229	113.834684058051	1094
0	4232	114.004276082253	1095
0	4233	114.023825450123	1096
0	4239	114.155494631422	1097
0	4243	114.210288613255	1098
0	4246	114.287145182463	1099
0	4249	114.338159651359	1100
0	4256	114.443897730271	1101
0	4261	114.498258443953	1102
0	4267	114.627463879456	1103
0	4270	114.666063641832	1104
0	4274	114.714985658858	1105
0	4279	114.899483991932	1106
0	4280	115.040277285437	1107
0	4281	115.053233281142	1108
0	4292	115.247574069869	1109
0	4298	115.373421515842	1110
0	4299	115.528523064445	1111
0	4305	115.719365299377	1112
0	4307	115.877909178289	1113
0	4309	115.918632587676	1114
0	4318	116.036776850957	1115
0	4324	116.125573686967	1116
0	4330	116.243850126092	1117
0	4335	116.387664058616	1118
0	4337	116.430011931225	1119
0	4346	116.557679047154	1120
0	4356	116.652277540933	1121
0	4361	116.835646221135	1122
0	4366	117.031934033917	1123
0	4367	117.226238362715	1124
0	4372	117.393023003266	1125
0	4375	117.543310829118	1126
0	4377	117.731170105879	1127
0	4378	117.794975011787	1128
0	4379	117.860308760598	1129
0	4382	117.960097888948	1130
0	4388	118.089700266759	1131
0	4393	118.253085517372	1132
0	4395	118.368604790825	1133
0	4396	118.52316457762	1134
0	4401	118.641545755231	1135
0	4408	118.791557822494	1136
0	4410	118.940969709294	1137
0	4415	119.00493836504	1138
0	4422	119.164923138305	1139
0	4423	119.192789055741	1140
0	4427	119.267179947597	1141
0	4429	119.297537558737	1142
0	4434	119.433886574718	1143
0	4438	119.544409289306	1144
0	4439	119.620269384579	1145
0	4441	119.668124586923	1146
0	4447	119.797435593246	1147
0	4452	119.925331972441	1148
0	4453	120.118119172113	1149
0	4458	120.190824303228	1150
0	4463	120.344544821914	1151
0	4465	120.375819384106	1152
0	4466	120.530522272603	1153
0	4471	120.693757923774	1154
0	4475	120.753659112291	1155
0	4482	120.820943632587	1156
0	4483	120.92309112764	1157
0	4487	121.026977059266	1158
0	4489	121.100269495691	1159
0	4493	121.16851153706	1160
0	4498	121.235737282986	1161
0	4501	121.289277008379	1162
0	4505	121.332365978158	1163
0	4509	121.374191412039	1164
0	4513	121.419343880122	1165
0	4518	121.510171503264	1166
0	4522	121.572197884328	1167
0	4526	121.601317623523	1168
0	4531	121.644107376679	1169
0	4534	121.786956457614	1170
0	4536	121.879104031822	1171
0	4539	121.947901974248	1172
0	4543	121.989961818687	1173
0	4549	122.169882880037	1174
0	4551	122.189068847291	1175
0	4556	122.235373933603	1176
0	4559	122.336858292684	1177
0	4560	122.422655890606	1178
0	4565	122.541344595268	1179
0	4569	122.716395261854	1180
0	4570	122.76518341784	1181
0	4578	122.830755948968	1182
0	4585	122.924912958791	1183
0	4589	122.979026180304	1184
0	4596	123.156607509205	1185
0	4598	123.18465499074	1186
0	4608	123.368483675903	1187
0	4609	123.394577245334	1188
0	4611	123.437971168939	1189
0	4617	123.537063985074	1190
0	4618	123.559555759144	1191
0	4622	123.704149281451	1192
0	4623	123.773631425722	1193
0	4625	123.803409941251	1194
0	4628	123.833644473523	1195
0	4631	123.879457652548	1196
0	4636	123.966567255715	1197
0	4639	123.989920969999	1198
0	4646	124.089255769854	1199
0	4655	124.249345263555	1200
0	4658	124.310472713048	1201
0	4659	124.409210097569	1202
0	4661	124.464644321991	1203
0	4666	124.648321952022	1204
0	4669	124.809271385547	1205
0	4671	124.975029007893	1206
0	4673	125.104277837736	1207
0	4674	125.143280027423	1208
0	4677	125.240658799543	1209
0	4678	125.251496643636	1210
0	4680	125.377827126328	1211
0	4682	125.423097371552	1212
0	4687	125.549399817772	1213
0	4688	125.595256542254	1214
0	4691	125.64812458369	1215
0	4694	125.71013821882	1216
0	4703	125.854148402622	1217
0	4706	125.954671672718	1218
0	4716	126.128389905917	1219
0	4720	126.159449080522	1220
0	4729	126.279558805474	1221
0	4731	126.302513058239	1222
0	4735	126.414576865272	1223
0	4736	126.450001388367	1224
0	4741	126.560838426175	1225
0	4744	126.623869798636	1226
0	4747	126.681827530303	1227
0	4749	126.845490235405	1228
0	4756	127.021546820037	1229
0	4758	127.084748635563	1230
0	4763	127.268457096436	1231
0	4764	127.452080660637	1232
0	4769	127.587901074942	1233
0	4772	127.651303300897	1234
0	4774	127.701265033577	1235
0	4779	127.792300394259	1236
0	4780	127.810111484414	1237
0	4781	127.820273162507	1238
0	4791	127.949893764354	1239
0	4797	128.144390485123	1240
0	4802	128.289909168092	1241
0	4803	128.353593926464	1242
0	4804	128.467988482571	1243
0	4805	128.650036478997	1244
0	4810	128.789701763463	1245
0	4812	128.853789589621	1246
0	4817	128.982613987242	1247
0	4821	129.109501773949	1248
0	4827	129.199474680029	1249
0	4832	129.270680972057	1250
0	4839	129.411913186024	1251
0	4844	129.506292563012	1252
0	4846	129.542530422712	1253
0	4850	129.628769787711	1254
0	4857	129.723746506377	1255
0	4863	129.765619377714	1256
0	4869	129.827358316361	1257
0	4875	129.98596440971	1258
0	4879	130.029957478834	1259
0	4883	130.081585643909	1260
0	4892	130.184645658313	1261
0	4893	130.232221965253	1262
0	4895	130.288836732675	1263
0	4898	130.402945321033	1264
0	4902	130.527657575736	1265
0	4905	130.701652239762	1266
0	4909	130.758970231603	1267
0	4911	130.798875443047	1268
0	4917	130.973488855698	1269
0	4920	131.020700536059	1270
0	4924	131.159306062395	1271
0	4928	131.211854628453	1272
0	4937	131.333477158505	1273
0	4940	131.3496412821	1274
0	4951	131.508171317936	1275
0	4956	131.618675965443	1276
0	4957	131.755049498733	1277
0	4958	131.939873955864	1278
0	4962	132.069025446705	1279
0	4968	132.175770780176	1280
0	4976	132.30787803841	1281
0	4977	132.41213294245	1282
0	4980	132.470934206	1283
0	4996	132.627737690063	1284
0	4998	132.651355289018	1285
0	5009	132.77811271341	1286
0	5021	132.962139955614	1287
0	5023	133.090810529126	1288
0	5028	133.168819254941	1289
0	5038	133.342303439757	1290
0	5041	133.366683724382	1291
0	5047	133.436980552123	1292
0	5049	133.614461209012	1293
0	5051	133.730967847257	1294
0	5056	133.876042828231	1295
0	5058	133.901056968565	1296
0	5065	134.010909173887	1297
0	5072	134.05342474801	1298
0	5081	134.144326189214	1299
0	5087	134.267110861235	1300
0	5097	134.451086422205	1301
0	5102	134.636862337349	1302
0	5106	134.75615143778	1303
0	5108	134.793776510253	1304
0	5113	134.986646761571	1305
0	5116	135.022103723244	1306
0	5121	135.203025294124	1307
0	5124	135.369561587964	1308
0	5129	135.523947120119	1309
0	5130	135.57229299808	1310
0	5132	135.736116643831	1311
0	5134	135.890011269491	1312
0	5136	135.971758603785	1313
0	5139	136.04747290721	1314
0	5142	136.072361764571	1315
0	5149	136.198812476905	1316
0	5153	136.348644689949	1317
0	5154	136.438376522282	1318
0	5157	136.493582102148	1319
0	5160	136.644802054527	1320
0	5164	136.736331179246	1321
0	5170	136.881187170657	1322
0	5177	137.054295072317	1323
0	5178	137.199033886009	1324
0	5182	137.282008818147	1325
0	5186	137.344765316864	1326
0	5190	137.435407741504	1327
0	5195	137.574639062312	1328
0	5196	137.657278461141	1329
0	5198	137.77199194275	1330
0	5201	137.879394418985	1331
0	5202	137.925592172219	1332
0	5205	138.122870690588	1333
0	5206	138.297507831522	1334
0	5211	138.493818682698	1335
0	5212	138.61457774434	1336
0	5214	138.76318091115	1337
0	5215	138.899595060423	1338
0	5222	139.038764933613	1339
0	5228	139.138695484928	1340
0	5231	139.205021317159	1341
0	5233	139.396095021984	1342
0	5234	139.512787660099	1343
0	5239	139.694661503632	1344
0	5244	139.842939648039	1345
0	5246	139.89180967452	1346
0	5247	139.911231680948	1347
0	5252	140.010723018062	1348
0	5254	140.121659867589	1349
0	5256	140.271998687927	1350
0	5257	140.296842565553	1351
0	5259	140.452051689304	1352
0	5261	140.493469557607	1353
0	5265	140.688659412014	1354
0	5266	140.871252716352	1355
0	5268	140.992997369203	1356
0	5273	141.178172317425	1357
0	5276	141.279828280858	1358
0	5281	141.467167246333	1359
0	5282	141.662971714456	1360
0	5285	141.857552197639	1361
0	5288	141.888210101487	1362
0	5289	141.903807954281	1363
0	5296	142.084618282521	1364
0	5301	142.263769309945	1365
0	5303	142.367379436268	1366
0	5304	142.515631949591	1367
0	5313	142.703623129471	1368
0	5314	142.824870217018	1369
0	5319	142.934862152854	1370
0	5322	143.132352577116	1371
0	5323	143.155075709113	1372
0	5324	143.252088498456	1373
0	5325	143.34018016721	1374
0	5327	143.454577043768	1375
0	5330	143.58190763577	1376
0	5332	143.728903376936	1377
0	5335	143.773903449437	1378
0	5344	143.959318931527	1379
0	5350	144.048500439334	1380
0	5356	144.23367585161	1381
0	5359	144.411338360498	1382
0	5361	144.459213954708	1383
0	5368	144.586849331902	1384
0	5372	144.708666844137	1385
0	5373	144.74736127271	1386
0	5376	144.908250471618	1387
0	5377	144.994255019691	1388
0	5378	145.017178618609	1389
0	5384	145.193455859464	1390
0	5386	145.240352592542	1391
0	5387	145.393981417591	1392
0	5397	145.584032414391	1393
0	5398	145.596512398476	1394
0	5405	145.692890804087	1395
0	5406	145.741944677958	1396
0	5407	145.932760620804	1397
0	5412	146.018141314941	1398
0	5421	146.144229827229	1399
0	5430	146.290612329856	1400
0	5434	146.352559096819	1401
0	5437	146.398358718898	1402
0	5441	146.578393029427	1403
0	5446	146.689592899483	1404
0	5447	146.852796565381	1405
0	5452	147.023830657609	1406
0	5453	147.064444880265	1407
0	5460	147.225089332846	1408
0	5463	147.277396577248	1409
0	5482	147.455615778608	1410
0	5488	147.535162298762	1411
0	5493	147.640488815386	1412
0	5494	147.748257919696	1413
0	5495	147.807225882818	1414
0	5499	147.922057708874	1415
0	5504	148.08798589647	1416
0	5505	148.269947059049	1417
0	5507	148.294492661698	1418
0	5516	148.405795171022	1419
0	5520	148.567114370809	1420
0	5524	148.636049628718	1421
0	5530	148.739835550838	1422
0	5534	148.786746052054	1423
0	5539	148.87937129419	1424
0	5544	148.987932563458	1425
0	5545	148.999158113798	1426
0	5547	149.189372452166	1427
0	5550	149.328222925713	1428
0	5554	149.469915158619	1429
0	5556	149.562630667545	1430
0	5558	149.704382796737	1431
0	5565	149.889787647992	1432
0	5566	149.969332707324	1433
0	5567	150.044053422802	1434
0	5569	150.07695300225	1435
0	5571	150.091853323945	1436
0	5578	150.248391310957	1437
0	5583	150.398650543294	1438
0	5589	150.516901416408	1439
0	5592	150.71292433572	1440
0	5596	150.909752676473	1441
0	5605	151.10591297444	1442
0	5608	151.190969855062	1443
0	5609	151.23206405287	1444
0	5611	151.256504601662	1445
0	5616	151.337510986585	1446
0	5624	151.527316992645	1447
0	5631	151.724448289754	1448
0	5632	151.880499575077	1449
0	5637	151.964770104209	1450
0	5642	152.097710723829	1451
0	5649	152.270991825323	1452
0	5656	152.40918080076	1453
0	5657	152.523253905518	1454
0	5658	152.573827954201	1455
0	5662	152.647704274583	1456
0	5670	152.781242550102	1457
0	5676	152.890051923038	1458
0	5685	153.000267608559	1459
0	5690	153.046719511975	1460
0	5700	153.229187869813	1461
0	5703	153.288505328763	1462
0	5707	153.467935919184	1463
0	5711	153.557448695067	1464
0	5716	153.689305218323	1465
0	5720	153.8210924782	1466
0	5721	154.002396812546	1467
0	5724	154.18021735287	1468
0	5727	154.240739598386	1469
0	5732	154.289327508418	1470
0	5739	154.46983138432	1471
0	5740	154.537626393558	1472
0	5745	154.705894103429	1473
0	5749	154.85485070655	1474
0	5751	154.885979261986	1475
0	5755	154.962424123451	1476
0	5760	155.028757407631	1477
0	5766	155.217254051567	1478
0	5769	155.378590277253	1479
0	5773	155.507939854047	1480
0	5776	155.676164862254	1481
0	5778	155.806745135175	1482
0	5785	155.929502349355	1483
0	5792	156.089668045182	1484
0	5793	156.24706728858	1485
0	5798	156.338771991535	1486
0	5803	156.519442668402	1487
0	5805	156.674582168987	1488
0	5809	156.850134383432	1489
0	5812	157.023872585584	1490
0	5817	157.175328019518	1491
0	5819	157.31119950723	1492
0	5822	157.357348610317	1493
0	5823	157.446496619122	1494
0	5824	157.529450741257	1495
0	5827	157.650414453347	1496
0	5831	157.744599715744	1497
0	5838	157.917906309327	1498
0	5839	158.114269495572	1499
0	5840	158.274508787033	1500
0	5842	158.360105883174	1501
0	5843	158.495077734119	1502
0	5850	158.603406713591	1503
0	5853	158.758739362436	1504
0	5855	158.876057098101	1505
0	5858	158.975814357258	1506
0	5862	159.149074891792	1507
0	5864	159.235969005537	1508
0	5868	159.336043403431	1509
0	5869	159.522927235149	1510
0	5873	159.582711260236	1511
0	5876	159.725713888794	1512
0	5878	159.750183019688	1513
0	5885	159.904825173105	1514
0	5887	160.087738783651	1515
0	5892	160.213303527777	1516
0	5893	160.22704363145	1517
0	5895	160.363142818842	1518
0	5900	160.45449068541	1519
0	5905	160.520360206052	1520
0	5907	160.57463315676	1521
0	5913	160.733424243259	1522
0	5915	160.823951468319	1523
0	5918	160.932542157863	1524
0	5923	161.078269013495	1525
0	5925	161.227197102951	1526
0	5927	161.260660230671	1527
0	5928	161.347420883861	1528
0	5930	161.366431339281	1529
0	5936	161.530462021977	1530
0	5938	161.681480546014	1531
0	5943	161.850531453483	1532
0	5948	161.99559752058	1533
0	5954	162.10611906437	1534
0	5966	162.238173500256	1535
0	5977	162.384259410359	1536
0	5983	162.518677590187	1537
0	5985	162.709854482343	1538
0	5986	162.826284110901	1539
0	5990	162.967387485882	1540
0	5992	163.063850690178	1541
0	5994	163.079476117026	1542
0	6000	163.225015288433	1543
0	6003	163.287889339342	1544
0	6006	163.397915457345	1545
0	6011	163.537260268871	1546
0	6014	163.570259498349	1547
0	6020	163.637389552689	1548
0	6021	163.778978659623	1549
0	6024	163.940136408832	1550
0	6026	164.125984839278	1551
0	6031	164.206664095281	1552
0	6037	164.278080228269	1553
0	6039	164.391688075976	1554
0	6041	164.452519483485	1555
0	6043	164.483286937301	1556
0	6051	164.649594685147	1557
0	6055	164.764828689367	1558
0	6056	164.787808480892	1559
0	6058	164.944338676739	1560
0	6059	164.996367734869	1561
0	6064	165.138668992927	1562
0	6066	165.175463652464	1563
0	6068	165.188865074643	1564
0	6075	165.33847653246	1565
0	6077	165.469493281217	1566
0	6078	165.491528836509	1567
0	6085	165.545446951309	1568
0	6088	165.564257610895	1569
0	6093	165.641712383091	1570
0	6096	165.768451758408	1571
0	6098	165.820526749244	1572
0	6104	165.990356498611	1573
0	6105	166.056961249957	1574
0	6107	166.21682848554	1575
0	6108	166.352513541133	1576
0	6113	166.459331079047	1577
0	6119	166.55270446535	1578
0	6127	166.688169791194	1579
0	6130	166.844503948193	1580
0	6134	166.907340353025	1581
0	6137	166.978093438871	1582
0	6139	166.999839642929	1583
0	6143	167.057616257077	1584
0	6145	167.079352967963	1585
0	6148	167.124669420212	1586
0	6154	167.285050972591	1587
0	6155	167.304710265566	1588
0	6164	167.426935495735	1589
0	6168	167.446912131471	1590
0	6170	167.468668102355	1591
0	6177	167.576584081809	1592
0	6184	167.710146525114	1593
0	6186	167.841578409027	1594
0	6193	168.037606458422	1595
0	6196	168.081692694037	1596
0	6203	168.21264092783	1597
0	6208	168.381334989844	1598
0	6210	168.57448927846	1599
0	6212	168.773710826209	1600
0	6215	168.873293143492	1601
0	6218	169.006504897654	1602
0	6219	169.189224513936	1603
0	6226	169.383092556944	1604
0	6229	169.492809841951	1605
0	6235	169.674629858405	1606
0	6241	169.77449625404	1607
0	6243	169.819997271659	1608
0	6248	169.912850667533	1609
0	6255	170.020397522351	1610
0	6259	170.074957121806	1611
0	6263	170.124353759039	1612
0	6274	170.22783924167	1613
0	6276	170.261510369349	1614
0	6279	170.307089103355	1615
0	6285	170.360398038083	1616
0	6291	170.518655917307	1617
0	6295	170.688849090559	1618
0	6298	170.876728872657	1619
0	6299	171.062879932453	1620
0	6301	171.098311338776	1621
0	6306	171.278916765121	1622
0	6308	171.359040749173	1623
0	6313	171.44141356416	1624
0	6317	171.499258961973	1625
0	6320	171.526288651987	1626
0	6323	171.53695822642	1627
0	6328	171.607998460324	1628
0	6329	171.766478063671	1629
0	6331	171.818185792239	1630
0	6332	171.94596356302	1631
0	6334	172.003192515494	1632
0	6342	172.149841653942	1633
0	6345	172.183497910413	1634
0	6348	172.245863030082	1635
0	6354	172.416392923588	1636
0	6357	172.493119214223	1637
0	6361	172.59854026402	1638
0	6365	172.663053054005	1639
0	6371	172.806535797064	1640
0	6373	172.858599578699	1641
0	6376	172.99768634937	1642
0	6384	173.146984517362	1643
0	6393	173.226945430052	1644
0	6406	173.38414723244	1645
0	6410	173.544826493198	1646
0	6414	173.659733527356	1647
0	6415	173.790086925013	1648
0	6417	173.906519982842	1649
0	6420	173.990904022997	1650
0	6421	174.157707263738	1651
0	6425	174.26478349497	1652
0	6430	174.391089737061	1653
0	6435	174.565494243232	1654
0	6441	174.693236567794	1655
0	6449	174.842403616695	1656
0	6455	175.036473017707	1657
0	6458	175.21532557073	1658
0	6461	175.263642728966	1659
0	6470	175.425068525846	1660
0	6475	175.55148404425	1661
0	6478	175.615694007762	1662
0	6480	175.783682515351	1663
0	6483	175.934255610481	1664
0	6486	176.070295916491	1665
0	6491	176.186985315027	1666
0	6493	176.377884029405	1667
0	6496	176.438566139749	1668
0	6499	176.61064940289	1669
0	6500	176.624109435495	1670
0	6503	176.687913872173	1671
0	6504	176.777107084556	1672
0	6508	176.919783816572	1673
0	6513	177.055668775983	1674
0	6518	177.186963260538	1675
0	6522	177.229690626951	1676
0	6526	177.26484783199	1677
0	6530	177.331600423396	1678
0	6536	177.448319083039	1679
0	6539	177.47222362386	1680
0	6542	177.60636776104	1681
0	6543	177.617681892178	1682
0	6546	177.72424927808	1683
0	6549	177.802685243626	1684
0	6553	177.858333729339	1685
0	6556	177.983886861877	1686
0	6561	178.072176765622	1687
0	6562	178.114570182573	1688
0	6564	178.185791587436	1689
0	6566	178.293417229594	1690
0	6568	178.32353158155	1691
0	6574	178.462736892377	1692
0	6576	178.614662070184	1693
0	6579	178.810241685994	1694
0	6581	178.827515383931	1695
0	6589	178.884395677468	1696
0	6597	179.052591221428	1697
0	6598	179.249765623827	1698
0	6599	179.277767498158	1699
0	6611	179.386610959699	1700
0	6623	179.546748171324	1701
0	6629	179.660877915978	1702
0	6631	179.707838074901	1703
0	6632	179.878608403493	1704
0	6633	179.965476609136	1705
0	6635	180.024187808019	1706
0	6638	180.090973216634	1707
0	6641	180.114204033912	1708
0	6650	180.234978561584	1709
0	6651	180.296089551466	1710
0	6653	180.454519039554	1711
0	6656	180.562858515245	1712
0	6661	180.700337203828	1713
0	6663	180.804697470151	1714
0	6668	180.856866094452	1715
0	6675	180.970839143254	1716
0	6677	181.132129818448	1717
0	6682	181.265176781546	1718
0	6686	181.330535389979	1719
0	6689	181.412457167986	1720
0	6696	181.579320718504	1721
0	6700	181.757845256834	1722
0	6703	181.949333187551	1723
0	6706	182.051836962478	1724
0	6711	182.116504975682	1725
0	6720	182.290953021647	1726
0	6721	182.302205705034	1727
0	6730	182.393944046694	1728
0	6731	182.441362905871	1729
0	6734	182.535185389459	1730
0	6738	182.722486218126	1731
0	6741	182.763527348331	1732
0	6748	182.856560613244	1733
0	6753	182.996540697637	1734
0	6757	183.074165635659	1735
0	6760	183.139378192921	1736
0	6761	183.312642030826	1737
0	6766	183.480662566466	1738
0	6768	183.624450788676	1739
0	6769	183.648991690526	1740
0	6770	183.663271149072	1741
0	6781	183.844402379802	1742
0	6785	184.035986395114	1743
0	6790	184.165845421526	1744
0	6791	184.205388280923	1745
0	6794	184.257223780841	1746
0	6799	184.336788495259	1747
0	6800	184.347420184155	1748
0	6812	184.441129922389	1749
0	6816	184.509591736462	1750
0	6820	184.69819208969	1751
0	6825	184.781295829582	1752
0	6828	184.826541176123	1753
0	6830	184.896914592673	1754
0	6835	185.042397367315	1755
0	6836	185.085970856665	1756
0	6841	185.236459362177	1757
0	6845	185.295994051838	1758
0	6849	185.463884038479	1759
0	6854	185.581019633758	1760
0	6858	185.629090070272	1761
0	6863	185.738867835858	1762
0	6864	185.936594381001	1763
0	6868	186.019570398868	1764
0	6872	186.110992339723	1765
0	6874	186.165059338728	1766
0	6876	186.343205979752	1767
0	6884	186.466107368666	1768
0	6886	186.577981538594	1769
0	6891	186.728362008089	1770
0	6894	186.824616105508	1771
0	6901	186.963261247699	1772
0	6902	187.155252037882	1773
0	6903	187.215575419213	1774
0	6904	187.233536951628	1775
0	6906	187.338838994207	1776
0	6908	187.457368331584	1777
0	6912	187.644167671804	1778
0	6914	187.662862179326	1779
0	6915	187.797792733114	1780
0	6917	187.887731420133	1781
0	6922	188.081141203496	1782
0	6926	188.234467399461	1783
0	6929	188.403824074025	1784
0	6933	188.485405224162	1785
0	6937	188.667300347547	1786
0	6938	188.865598556789	1787
0	6943	189.007645389064	1788
0	6944	189.161746998717	1789
0	6945	189.176266609492	1790
0	6948	189.259198087348	1791
0	6949	189.448181249386	1792
0	6955	189.566688994503	1793
0	6961	189.722101942427	1794
0	6965	189.79631021604	1795
0	6966	189.865626295154	1796
0	6969	190.024899415014	1797
0	6973	190.092784623447	1798
0	6977	190.160356765058	1799
0	6979	190.1777596047	1800
0	6983	190.261278699654	1801
0	6988	190.326070582477	1802
0	6998	190.512744677902	1803
0	7000	190.694508499714	1804
0	7002	190.794326937701	1805
0	7003	190.861723666305	1806
0	7008	191.046899171038	1807
0	7009	191.212111559216	1808
0	7011	191.264427825833	1809
0	7017	191.378059992088	1810
0	7020	191.496100293124	1811
0	7023	191.538134748459	1812
0	7027	191.561051459769	1813
0	7036	191.666974618449	1814
0	7043	191.730340367577	1815
0	7049	191.926080080155	1816
0	7052	191.985582895359	1817
0	7061	192.079098073571	1818
0	7065	192.272827139391	1819
0	7066	192.285637445526	1820
0	7070	192.427080658422	1821
0	7078	192.556792153466	1822
0	7082	192.667470042346	1823
0	7085	192.843250274629	1824
0	7087	192.901350404838	1825
0	7097	193.067269307402	1826
0	7099	193.12705205667	1827
0	7102	193.261534433851	1828
0	7106	193.361655298799	1829
0	7113	193.519290079006	1830
0	7115	193.554543936741	1831
0	7120	193.707225617584	1832
0	7121	193.724444222224	1833
0	7126	193.909960182211	1834
0	7128	193.928856458042	1835
0	7136	194.008604656481	1836
0	7139	194.036881077373	1837
0	7145	194.117450931605	1838
0	7153	194.317209937353	1839
0	7155	194.446102509219	1840
0	7158	194.598913774455	1841
0	7159	194.759714580001	1842
0	7164	194.846207895581	1843
0	7169	194.931422522216	1844
0	7174	195.044313243945	1845
0	7175	195.22962160844	1846
0	7178	195.369330787222	1847
0	7183	195.433817212704	1848
0	7190	195.54478468029	1849
0	7193	195.59197239866	1850
0	7198	195.785004968545	1851
0	7199	195.874293784259	1852
0	7204	195.974476862626	1853
0	7209	196.118143346109	1854
0	7212	196.179610451168	1855
0	7217	196.244876638871	1856
0	7220	196.29182814293	1857
0	7229	196.40591680414	1858
0	7244	196.590542062737	1859
0	7246	196.69193319167	1860
0	7253	196.841361407889	1861
0	7265	197.012325317298	1862
0	7268	197.085035680907	1863
0	7270	197.205091316185	1864
0	7271	197.247833813438	1865
0	7275	197.438640394057	1866
0	7278	197.553910827548	1867
0	7279	197.74188206953	1868
0	7286	197.874655458282	1869
0	7290	197.96936616488	1870
0	7291	198.112740171549	1871
0	7294	198.171640740207	1872
0	7298	198.288980796419	1873
0	7300	198.379206537712	1874
0	7301	198.393974768986	1875
0	7310	198.489632897471	1876
0	7315	198.621379448907	1877
0	7316	198.636891226445	1878
0	7319	198.721369290906	1879
0	7320	198.76002259193	1880
0	7323	198.817263164132	1881
0	7328	198.920379610691	1882
0	7331	198.949165001089	1883
0	7337	199.091279583588	1884
0	7341	199.14535499906	1885
0	7351	199.338845025364	1886
0	7353	199.452716536641	1887
0	7359	199.556781210082	1888
0	7363	199.61761223281	1889
0	7369	199.76134813132	1890
0	7374	199.950781294466	1891
0	7379	200.094413644266	1892
0	7383	200.149117143163	1893
0	7388	200.322934470279	1894
0	7390	200.373416296462	1895
0	7396	200.491060260629	1896
0	7399	200.528139945605	1897
0	7400	200.65384077266	1898
0	7403	200.715063522809	1899
0	7406	200.911246055988	1900
0	7407	201.028197182777	1901
0	7410	201.210222024861	1902
0	7411	201.230502324581	1903
0	7417	201.379750918254	1904
0	7421	201.522031104156	1905
0	7425	201.697245029054	1906
0	7432	201.883000074298	1907
0	7435	201.928561838012	1908
0	7443	202.07745860302	1909
0	7448	202.204790292563	1910
0	7452	202.286953378601	1911
0	7459	202.34691391512	1912
0	7462	202.488008816302	1913
0	7466	202.559880913744	1914
0	7470	202.662655874264	1915
0	7475	202.788729051556	1916
0	7478	202.840676032025	1917
0	7479	202.856506391116	1918
0	7484	203.010935732915	1919
0	7486	203.197777498357	1920
0	7492	203.37218176268	1921
0	7495	203.517865783316	1922
0	7497	203.648207948194	1923
0	7499	203.688793632898	1924
0	7504	203.7634845523	1925
0	7512	203.94110385132	1926
0	7514	204.073230188486	1927
0	7519	204.141876427254	1928
0	7524	204.224412921299	1929
0	7529	204.398209097914	1930
0	7531	204.576415502068	1931
0	7539	204.747903293995	1932
0	7544	204.850930890259	1933
0	7546	204.923607369156	1934
0	7553	205.02240322201	1935
0	7557	205.095825277599	1936
0	7559	205.196935217839	1937
0	7562	205.241566394856	1938
0	7569	205.391006069954	1939
0	7573	205.581190854271	1940
0	7577	205.641558769729	1941
0	7580	205.684470252012	1942
0	7590	205.846596040189	1943
0	7597	205.990794671098	1944
0	7598	206.139277673207	1945
0	7599	206.300355684051	1946
0	7600	206.4682042598	1947
0	7602	206.58294503787	1948
0	7603	206.628336519899	1949
0	7606	206.677203905515	1950
0	7610	206.776544609305	1951
0	7616	206.913290202897	1952
0	7621	207.046292857348	1953
0	7622	207.064544208946	1954
0	7627	207.21273607186	1955
0	7630	207.243762297737	1956
0	7637	207.302162271905	1957
0	7641	207.371620838346	1958
0	7643	207.386071982553	1959
0	7651	207.432924498955	1960
0	7655	207.478912980703	1961
0	7660	207.59288788568	1962
0	7661	207.608981582043	1963
0	7665	207.6824128103	1964
0	7671	207.83949612845	1965
0	7673	207.952607990629	1966
0	7674	208.044159318444	1967
0	7675	208.199044233547	1968
0	7678	208.365303493997	1969
0	7685	208.490629879604	1970
0	7701	208.651410676206	1971
0	7702	208.672523420041	1972
0	7704	208.686927867953	1973
0	7713	208.771876556177	1974
0	7721	208.938845435711	1975
0	7728	209.098135805402	1976
0	7731	209.130018903873	1977
0	7735	209.268392091795	1978
0	7743	209.38814794748	1979
0	7749	209.494282477129	1980
0	7754	209.689154325606	1981
0	7759	209.8806043584	1982
0	7765	210.030019564497	1983
0	7772	210.168705722891	1984
0	7777	210.34249453059	1985
0	7778	210.462270230831	1986
0	7787	210.646853483492	1987
0	7792	210.773702595372	1988
0	7795	210.968338938494	1989
0	7802	211.083130493754	1990
0	7803	211.182337883593	1991
0	7804	211.341337225215	1992
0	7805	211.451464220936	1993
0	7807	211.541049614752	1994
0	7812	211.614328445039	1995
0	7823	211.760938794658	1996
0	7825	211.875930747917	1997
0	7829	211.989012865425	1998
0	7831	212.115693883135	1999
0	7832	212.258307876452	2000
0	7834	212.431599431343	2001
0	7835	212.528728189827	2002
0	7837	212.727241384932	2003
0	7840	212.755786320116	2004
0	7853	212.906752436932	2005
0	7856	212.959880223219	2006
0	7859	213.000910890427	2007
0	7863	213.19100253201	2008
0	7866	213.304467774806	2009
0	7868	213.342168700722	2010
0	7872	213.488052497107	2011
0	7874	213.524977677552	2012
0	7876	213.556150428563	2013
0	7879	213.722801858015	2014
0	7884	213.871192234308	2015
0	7888	213.934612871514	2016
0	7892	213.973584699634	2017
0	7899	214.112746070005	2018
0	7903	214.166046991715	2019
0	7908	214.23286045923	2020
0	7911	214.261333035094	2021
0	7915	214.456223960291	2022
0	7923	214.584574988662	2023
0	7929	214.67300021825	2024
0	7931	214.867483781319	2025
0	7937	215.006225866982	2026
0	7941	215.113979117607	2027
0	7946	215.272914252453	2028
0	7949	215.316071028506	2029
0	7954	215.408475609598	2030
0	7959	215.591967293331	2031
0	7963	215.749129525607	2032
0	7966	215.837076659398	2033
0	7967	215.991634152506	2034
0	7968	216.089265789965	2035
0	7969	216.196798928271	2036
0	7970	216.385853551203	2037
0	7972	216.482208756598	2038
0	7974	216.600521169212	2039
0	7975	216.613808439053	2040
0	7976	216.721056930684	2041
0	7977	216.813330488194	2042
0	7980	216.873265380932	2043
0	7984	216.962233780108	2044
0	7990	217.084220088434	2045
0	7991	217.102723278389	2046
0	7994	217.203647940543	2047
0	8005	217.394865554543	2048
0	8007	217.562396786646	2049
0	8009	217.731066516531	2050
0	8013	217.857778755836	2051
0	8017	217.938646053772	2052
0	8022	218.078005485898	2053
0	8027	218.229090372198	2054
0	8029	218.250339813558	2055
0	8034	218.368537303742	2056
0	8037	218.556967687339	2057
0	8038	218.568698164069	2058
0	8045	218.632030306165	2059
0	8048	218.746810570296	2060
0	8051	218.906068336977	2061
0	8052	219.056427692335	2062
0	8055	219.105398496114	2063
0	8061	219.301910452828	2064
0	8066	219.447442081775	2065
0	8070	219.579775168518	2066
0	8071	219.765145800181	2067
0	8072	219.801355213458	2068
0	8073	219.938181326611	2069
0	8074	220.011724268243	2070
0	8079	220.152157245172	2071
0	8080	220.275388452798	2072
0	8081	220.293521261498	2073
0	8084	220.465450625148	2074
0	8086	220.635117202025	2075
0	8089	220.661343285675	2076
0	8091	220.718650216778	2077
0	8092	220.812196111699	2078
0	8097	220.871970921782	2079
0	8098	220.957731457831	2080
0	8100	221.141036705597	2081
0	8102	221.327259032834	2082
0	8104	221.42492307463	2083
0	8108	221.506623251583	2084
0	8120	221.687042516103	2085
0	8129	221.853436896602	2086
0	8136	221.985994049198	2087
0	8140	222.044701501978	2088
0	8145	222.144778830495	2089
0	8147	222.191861118367	2090
0	8148	222.235500928485	2091
0	8151	222.412952331742	2092
0	8153	222.553978991173	2093
0	8155	222.632542427208	2094
0	8157	222.692398411792	2095
0	8162	222.755631666519	2096
0	8166	222.809556948776	2097
0	8170	222.835909926408	2098
0	8177	222.920114028955	2099
0	8180	223.017071629712	2100
0	8185	223.138268103572	2101
0	8197	223.311452579177	2102
0	8199	223.349328493108	2103
0	8207	223.486736186135	2104
0	8210	223.529633513819	2105
0	8218	223.712525097779	2106
0	8219	223.80042539712	2107
0	8224	223.907332023196	2108
0	8225	223.948883985805	2109
0	8233	224.081569327931	2110
0	8236	224.221512644191	2111
0	8237	224.314685102217	2112
0	8239	224.372133536709	2113
0	8241	224.393416403062	2114
0	8246	224.449573469828	2115
0	8248	224.629486348729	2116
0	8251	224.661841860118	2117
0	8253	224.77758489144	2118
0	8258	224.896977029014	2119
0	8262	225.079628493746	2120
0	8267	225.222734734849	2121
0	8270	225.29423823873	2122
0	8275	225.417175638116	2123
0	8281	225.53496299684	2124
0	8284	225.674955687155	2125
0	8288	225.839038825911	2126
0	8290	225.905216942125	2127
0	8295	226.026286229901	2128
0	8298	226.087901660795	2129
0	8303	226.218975538895	2130
0	8306	226.316349907228	2131
0	8309	226.436356741022	2132
0	8311	226.495858297837	2133
0	8315	226.568935625728	2134
0	8317	226.658758381694	2135
0	8319	226.817520294146	2136
0	8321	226.840553512574	2137
0	8324	226.876162323713	2138
0	8336	227.065315087192	2139
0	8340	227.190628251663	2140
0	8343	227.322931732465	2141
0	8348	227.488231168866	2142
0	8349	227.502012560274	2143
0	8353	227.66826957592	2144
0	8356	227.836210819201	2145
0	8358	227.992705901719	2146
0	8360	228.025659640957	2147
0	8363	228.058937757611	2148
0	8366	228.091417331628	2149
0	8368	228.287215820302	2150
0	8371	228.342707875059	2151
0	8373	228.400797165541	2152
0	8376	228.45023882051	2153
0	8377	228.641302129889	2154
0	8378	228.782780387324	2155
0	8379	228.794712543976	2156
0	8384	228.973618150048	2157
0	8385	229.110004873951	2158
0	8389	229.241390209589	2159
0	8393	229.41407001242	2160
0	8398	229.51477906885	2161
0	8399	229.532981093241	2162
0	8406	229.6485878135	2163
0	8409	229.81939744346	2164
0	8414	229.914609341094	2165
0	8415	230.048206473842	2166
0	8420	230.230564078974	2167
0	8421	230.290424369093	2168
0	8427	230.38986331615	2169
0	8430	230.423280584732	2170
0	8432	230.489011544684	2171
0	8436	230.528870379539	2172
0	8439	230.700415290325	2173
0	8440	230.83935758195	2174
0	8443	231.031880808343	2175
0	8445	231.06596516559	2176
0	8453	231.17804720325	2177
0	8454	231.240949616885	2178
0	8459	231.365647313938	2179
0	8466	231.425104155427	2180
0	8471	231.522595112231	2181
0	8475	231.611907378016	2182
0	8478	231.769727582869	2183
0	8486	231.933271936004	2184
0	8488	232.084531075794	2185
0	8492	232.236872709478	2186
0	8494	232.393901274696	2187
0	8497	232.505116396803	2188
0	8502	232.588803416673	2189
0	8506	232.775447735177	2190
0	8508	232.837163296745	2191
0	8511	232.878086126563	2192
0	8519	232.980589972758	2193
0	8522	233.000486280881	2194
0	8527	233.068920030568	2195
0	8528	233.135664186794	2196
0	8529	233.279577619293	2197
0	8533	233.403071474523	2198
0	8535	233.501978723257	2199
0	8537	233.528152833482	2200
0	8541	233.60049748036	2201
0	8542	233.612430096775	2202
0	8549	233.683857798175	2203
0	8551	233.8395529846	2204
0	8554	234.023707595236	2205
0	8555	234.039230990998	2206
0	8562	234.092277339878	2207
0	8565	234.201042625356	2208
0	8567	234.272980600923	2209
0	8570	234.356902031528	2210
0	8574	234.385994275324	2211
0	8577	234.543089636646	2212
0	8579	234.557611050732	2213
0	8587	234.666357641749	2214
0	8592	234.834279599949	2215
0	8594	234.923948595862	2216
0	8595	234.981953797765	2217
0	8600	235.074626237323	2218
0	8604	235.122330769448	2219
0	8606	235.210270746135	2220
0	8607	235.362279162138	2221
0	8610	235.455729264611	2222
0	8613	235.546662572574	2223
0	8618	235.662107693528	2224
0	8620	235.807239976195	2225
0	8625	235.922124524711	2226
0	8630	236.075727095763	2227
0	8635	236.146676277745	2228
0	8638	236.160308536509	2229
0	8646	236.306512509707	2230
0	8650	236.383396691102	2231
0	8653	236.432520694662	2232
0	8660	236.588220551849	2233
0	8661	236.605889607981	2234
0	8665	236.762727708007	2235
0	8666	236.878434746287	2236
0	8671	236.972813963576	2237
0	8676	237.16331905273	2238
0	8681	237.29680720923	2239
0	8688	237.473239539927	2240
0	8693	237.581423696093	2241
0	8701	237.712836052503	2242
0	8708	237.823469462376	2243
0	8709	238.008986228597	2244
0	8710	238.032025274296	2245
0	8716	238.082915624603	2246
0	8717	238.095961606718	2247
0	8720	238.133621889887	2248
0	8727	238.313072356096	2249
0	8728	238.341914880968	2250
0	8734	238.479876440997	2251
0	8738	238.575204429604	2252
0	8739	238.592641167628	2253
0	8740	238.60793139065	2254
0	8746	238.711698834941	2255
0	8751	238.837895190104	2256
0	8756	238.979646715804	2257
0	8761	239.093271753577	2258
0	8765	239.227521456136	2259
0	8767	239.318954174829	2260
0	8772	239.45427974826	2261
0	8777	239.578932719769	2262
0	8780	239.695682999634	2263
0	8787	239.845679389721	2264
0	8788	239.862557391176	2265
1	2	0.143790018797	1
1	10	0.285774200583	2
1	20	0.547652603143	3
1	26	0.825208422109	4
1	28	0.852597650703	5
1	45	1.123763441763	6
1	61	1.416884598215	7
1	80	1.721883271853	8
1	85	1.814600788767	9
1	112	2.339754986945	10
1	116	2.376219496746	11
1	122	2.552226676915	12
1	125	2.5892621312	13
1	134	2.728412619698	14
1	146	3.021943395461	15
1	150	3.164421094462	16
1	162	3.475611483732	17
1	167	3.65634396449	18
1	170	3.782803033395	19
1	180	3.96976595484	20
1	198	4.658330299552	21
1	225	5.400486539728	22
1	232	5.513674001913	23
1	237	5.835153500389	24
1	246	6.142725887523	25
1	271	6.680028799884	26
1	286	7.6121091211	27
1	291	7.667398924173	28
1	300	7.915256796088	29
1	305	7.989532673028	30
1	347	9.286590413522	31
1	354	9.321294442117	32
1	358	9.346047678481	33
1	375	9.700369645446	34
1	393	10.480437681341	35
1	400	10.652505904374	36
1	402	10.671230297733	37
1	406	10.706601823609	38
1	416	10.952077289579	39
1	445	12.08794859424	40
1	460	12.803018479343	41
1	467	12.907073226132	42
1	471	13.086194952398	43
1	477	13.211440405927	44
1	484	13.332915196693	45
1	485	13.352345852445	46
1	495	13.456904223071	47
1	506	13.699606639181	48
1	524	14.060539491748	49
1	535	14.304173042244	50
1	547	14.52901599481	51
1	559	14.699054569248	52
1	560	14.711005034178	53
1	575	15.034389594722	54
1	594	15.341751387911	55
1	598	15.49692613449	56
1	603	15.570135633201	57
1	618	15.775004180176	58
1	623	15.952751997125	59
1	637	16.327668369878	60
1	648	16.557547020966	61
1	650	16.576288173524	62
1	664	16.802747376664	63
1	670	17.04610681885	64
1	687	17.456255492794	65
1	701	17.996004242233	66
1	737	18.665951548449	67
1	751	19.103813605247	68
1	761	19.621445813116	69
1	771	20.011688995342	70
1	775	20.124587101396	71
1	782	20.260335340138	72
1	794	20.431699676766	73
1	808	21.042539635218	74
1	813	21.177221987847	75
1	817	21.324664876291	76
1	824	21.436664489945	77
1	832	21.594061076963	78
1	835	21.679308582823	79
1	837	21.70602553202	80
1	846	22.011977235824	81
1	870	22.865839121558	82
1	873	22.89029494999	83
1	927	24.040676948126	84
1	936	24.125176655046	85
1	955	24.826942315455	86
1	963	25.21612990719	87
1	972	25.338612311237	88
1	1004	26.214802067501	89
1	1013	26.465177060151	90
1	1018	26.778950290541	91
1	1034	27.128672195061	92
1	1058	27.950148558504	93
1	1067	28.167109890754	94
1	1076	28.602386551096	95
1	1079	28.627590936906	96
1	1082	28.668115664932	97
1	1091	28.754922763305	98
1	1098	28.840857432917	99
1	1103	29.015514250643	100
1	1129	29.592530400854	101
1	1138	29.752393246884	102
1	1141	29.77849813471	103
1	1164	30.792050582189	104
1	1170	30.915762991598	105
1	1175	30.950299111283	106
1	1176	30.958821698154	107
1	1186	31.076820833158	108
1	1204	31.315356592274	109
1	1210	31.374479148592	110
1	1218	31.553794526071	111
1	1272	33.158115643705	112
1	1276	33.182989783883	113
1	1286	33.503065048958	114
1	1301	33.841272547562	115
1	1305	33.921917494296	116
1	1333	34.608830971655	117
1	1341	34.685518557758	118
1	1357	35.035371194485	119
1	1362	35.158720928829	120
1	1378	35.486720265232	121
1	1388	35.706835284932	122
1	1393	36.085228850988	123
1	1399	36.257218966626	124
1	1409	36.608549569166	125
1	1438	37.391413581702	126
1	1450	38.060915057305	127
1	1453	38.091369292308	128
1	1466	38.245224309845	129
1	1476	38.544036266853	130
1	1479	38.559651946973	131
1	1491	38.749882396486	132
1	1492	38.755289792071	133
1	1507	39.172382887422	134
1	1512	39.318189453496	135
1	1517	39.357961822254	136
1	1527	39.489094516889	137
1	1534	39.630148605982	138
1	1539	39.696127048317	139
1	1552	40.017150399504	140
1	1556	40.105170201994	141
1	1561	40.285120660437	142
1	1571	40.49288163878	143
1	1572	40.498103039109	144
1	1583	40.716904942144	145
1	1599	41.192394083574	146
1	1606	41.241034519516	147
1	1635	41.839994985896	148
1	1653	42.125141394966	149
1	1666	42.360066988854	150
1	1670	42.595172282832	151
1	1674	42.779588857508	152
1	1686	43.029864053042	153
1	1699	43.408640992901	154
1	1703	43.551453193933	155
1	1714	43.717912987578	156
1	1725	44.030372124421	157
1	1730	44.080223979486	158
1	1748	44.530898904676	159
1	1753	44.676954623323	160
1	1771	45.317314664679	161
1	1775	45.4536530864	162
1	1783	45.674333369826	163
1	1794	45.988480108786	164
1	1811	46.509007396049	165
1	1815	46.548451647104	166
1	1824	46.791000984334	167
1	1829	46.885666137962	168
1	1848	47.576958781046	169
1	1859	47.834189318625	170
1	1872	48.025562693291	171
1	1879	48.355024577671	172
1	1890	48.663602703099	173
1	1901	49.005833498913	174
1	1908	49.198788293912	175
1	1947	50.420509201143	176
1	1969	51.065815146631	177
1	1987	51.513892693525	178
1	1991	51.584494140475	179
1	1998	51.733239336282	180
1	2020	52.36423628895	181
1	2036	52.8324343058	182
1	2042	52.967261200964	183
1	2049	53.086677481304	184
1	2050	53.086845594452	185
1	2060	53.291320938799	186
1	2078	53.698076226491	187
1	2095	54.338656189475	188
1	2098	54.459058593703	189
1	2101	54.640089170601	190
1	2106	54.820394830414	191
1	2120	55.193271322124	192
1	2144	55.836690957875	193
1	2156	56.111641557775	194
1	2202	57.644106074182	195
1	2223	58.348852998968	196
1	2241	58.893522292312	197
1	2246	59.06395162436	198
1	2251	59.218837171385	199
1	2278	60.054619291104	200
1	2282	60.202428436409	201
1	2293	60.325359746719	202
1	2308	61.079553383284	203
1	2337	61.692885659516	204
1	2339	61.785196820964	205
1	2360	62.136769552691	206
1	2374	62.686708367255	207
1	2379	62.945966622336	208
1	2387	63.268531469801	209
1	2401	63.530436829131	210
1	2409	63.804637804868	211
1	2429	64.331238821045	212
1	2432	64.364536268153	213
1	2458	64.616480446221	214
1	2467	64.881961637531	215
1	2487	65.193896987769	216
1	2490	65.263829504991	217
1	2493	65.344846833327	218
1	2497	65.540868442919	219
1	2502	65.709993635527	220
1	2528	66.835329488992	221
1	2537	67.030693550175	222
1	2539	67.050830718728	223
1	2543	67.096343908899	224
1	2554	67.378968095571	225
1	2588	68.4354438025	226
1	2610	68.766815459671	227
1	2643	69.287998507972	228
1	2648	69.39149577897	229
1	2676	70.128130170582	230
1	2682	70.323263761491	231
1	2714	71.196559922949	232
1	2725	71.39898755064	233
1	2735	71.820481908715	234
1	2738	71.961022941818	235
1	2746	72.120670266837	236
1	2749	72.149942513812	237
1	2760	72.398417192601	238
1	2764	72.559449259854	239
1	2772	72.86799040662	240
1	2807	73.420120694683	241
1	2815	73.490376286725	242
1	2823	73.588489441602	243
1	2847	74.021505431395	244
1	2889	74.879586354693	245
1	2893	74.921338654394	246
1	2905	75.068567825718	247
1	2912	75.188420139437	248
1	2931	75.518886608518	249
1	2945	75.762130046727	250
1	2961	76.888846864278	251
1	2975	77.247569435775	252
1	2996	77.999754280678	253
1	3001	78.140989522253	254
1	3020	78.790849179028	255
1	3023	78.813078765956	256
1	3042	79.44663295658	257
1	3058	80.21940545372	258
1	3084	81.625952102854	259
1	3095	81.871673407649	260
1	3108	82.241602356592	261
1	3117	82.385330078314	262
1	3134	82.816894671353	263
1	3141	83.291874512768	264
1	3149	83.490836495168	265
1	3169	83.992550393962	266
1	3175	84.240133984775	267
1	3180	84.322947222776	268
1	3186	84.514284678869	269
1	3195	84.681075761241	270
1	3215	85.551032841843	271
1	3237	86.351950557639	272
1	3242	86.396091983197	273
1	3243	86.405800811184	274
1	3258	86.716839148902	275
1	3268	87.005686627972	276
1	3272	87.111039101298	277
1	3284	87.357174702375	278
1	3292	87.573061556294	279
1	3297	87.672754443577	280
1	3322	88.162143015005	281
1	3342	89.207500889908	282
1	3346	89.272986343561	283
1	3357	89.388170707792	284
1	3385	90.196976330571	285
1	3397	90.374527048531	286
1	3411	90.853622584796	287
1	3417	90.998468383807	288
1	3423	91.130760688829	289
1	3434	91.281616090614	290
1	3503	94.089284878828	291
1	3508	94.206442991856	292
1	3512	94.247201609669	293
1	3527	94.546025478845	294
1	3569	95.407048186789	295
1	3578	95.779966955143	296
1	3587	96.468868906325	297
1	3601	96.674041841277	298
1	3618	97.206778001198	299
1	3648	98.040086869751	300
1	3663	98.599148085009	301
1	3674	98.831046131042	302
1	3692	99.451680097221	303
1	3697	99.502717863456	304
1	3703	99.563735449159	305
1	3730	100.63788612495	306
1	3750	101.203202958878	307
1	3757	101.348350479301	308
1	3771	101.733225861593	309
1	3783	101.874107600806	310
1	3804	102.313999077181	311
1	3811	102.627193307968	312
1	3821	103.08701201848	313
1	3865	104.454795059141	314
1	3873	104.625643966175	315
1	3878	104.688197633676	316
1	3895	105.166897092288	317
1	3901	105.358586893851	318
1	3919	106.109166142252	319
1	3959	107.417429572142	320
1	3974	107.996294125124	321
1	3975	108.004749313787	322
1	3980	108.035809533796	323
1	3990	108.407140481902	324
1	3996	108.551647952519	325
1	4016	109.178049971732	326
1	4025	109.401367375998	327
1	4031	109.509161087966	328
1	4053	109.908355042068	329
1	4056	110.005386622457	330
1	4067	110.209112016577	331
1	4069	110.227712828042	332
1	4086	110.383187057895	333
1	4095	110.589684457869	334
1	4096	110.609909730407	335
1	4109	111.234722348379	336
1	4117	111.376960908454	337
1	4127	111.553887753453	338
1	4131	111.594646283344	339
1	4152	112.294691148097	340
1	4159	112.517107182599	341
1	4177	112.807210373329	342
1	4185	112.898413917746	343
1	4189	112.934712655226	344
1	4198	113.020093694314	345
1	4211	113.267544045487	346
1	4220	113.629662270041	347
1	4234	114.047363590062	348
1	4247	114.30356762789	349
1	4250	114.349392179828	350
1	4257	114.454191469374	351
1	4262	114.523352887606	352
1	4275	114.727431868978	353
1	4300	115.547450650142	354
1	4308	115.890242537471	355
1	4319	116.053099897356	356
1	4327	116.172766999071	357
1	4331	116.253894871971	358
1	4339	116.455024663869	359
1	4362	116.846176469005	360
1	4368	117.243643973829	361
1	4380	117.892696920019	362
1	4389	118.111623239868	363
1	4411	118.953074497852	364
1	4424	119.205330272615	365
1	4442	119.683589195348	366
1	4472	120.715412398249	367
1	4490	121.118234022395	368
1	4499	121.249210015777	369
1	4502	121.302976624841	370
1	4507	121.368498965593	371
1	4514	121.430183775258	372
1	4532	121.664010515738	373
1	4537	121.900912260934	374
1	4545	122.005449739595	375
1	4553	122.207315002767	376
1	4571	122.768424957561	377
1	4573	122.782441194624	378
1	4581	122.845543071938	379
1	4597	123.171987485377	380
1	4624	123.783730137976	381
1	4632	123.890315463849	382
1	4638	123.983064248987	383
1	4641	124.002122539952	384
1	4647	124.107872581592	385
1	4660	124.437154556125	386
1	4667	124.667237178511	387
1	4689	125.6055788001	388
1	4704	125.876524451312	389
1	4707	125.968697733331	390
1	4724	126.177635342134	391
1	4730	126.299838310208	392
1	4745	126.660008173935	393
1	4750	126.865581943549	394
1	4759	127.104353288207	395
1	4765	127.468301835667	396
1	4773	127.675875250837	397
1	4792	127.97046981886	398
1	4806	128.665971656568	399
1	4822	129.128891952493	400
1	4828	129.224919714111	401
1	4840	129.428990705448	402
1	4852	129.648873285893	403
1	4859	129.733999560744	404
1	4880	130.041715367044	405
1	4899	130.4183753887	406
1	4903	130.550776443293	407
1	4910	130.791466710192	408
1	4918	130.99109200671	409
1	4925	131.174425148596	410
1	4930	131.223108791479	411
1	4939	131.345994871969	412
1	4942	131.368839318834	413
1	4959	131.961401325636	414
1	4963	132.079158956396	415
1	4970	132.202066877308	416
1	4997	132.63855036027	417
1	5011	132.797645102726	418
1	5024	133.118095409585	419
1	5052	133.761895930157	420
1	5088	134.283803005837	421
1	5103	134.653111722749	422
1	5109	134.836028276426	423
1	5114	135.003794624976	424
1	5122	135.215524197096	425
1	5125	135.379572814663	426
1	5144	136.089336899469	427
1	5155	136.464775467707	428
1	5161	136.698902008058	429
1	5165	136.746736134243	430
1	5171	136.896987182976	431
1	5179	137.215786747174	432
1	5199	137.803857139958	433
1	5203	137.940633442198	434
1	5216	138.913195213856	435
1	5225	139.096352006108	436
1	5229	139.163979217776	437
1	5240	139.707100923747	438
1	5248	139.917152859254	439
1	5249	139.923043232544	440
1	5262	140.50571258129	441
1	5274	141.188457995516	442
1	5286	141.875246094327	443
1	5290	141.92732464233	444
1	5305	142.55095737336	445
1	5338	143.793786956272	446
1	5345	143.984006486852	447
1	5351	144.061964885432	448
1	5357	144.245584731524	449
1	5369	144.597988247101	450
1	5388	145.411662767802	451
1	5414	146.032493885088	452
1	5431	146.312264862064	453
1	5448	146.865060007285	454
1	5454	147.081010638497	455
1	5489	147.550047594182	456
1	5500	147.959975637608	457
1	5509	148.30531685711	458
1	5527	148.667597901191	459
1	5531	148.757309146763	460
1	5551	149.352569662721	461
1	5570	150.088623035322	462
1	5573	150.110938159079	463
1	5590	150.530608067184	464
1	5597	150.944056178578	465
1	5606	151.128359316319	466
1	5613	151.276792656642	467
1	5617	151.348455073658	468
1	5625	151.547867608836	469
1	5633	151.902659145099	470
1	5650	152.293466521415	471
1	5659	152.592117036398	472
1	5688	153.040044507715	473
1	5705	153.310187759947	474
1	5712	153.568409475052	475
1	5725	154.218058505002	476
1	5728	154.251855123753	477
1	5752	154.898985575706	478
1	5762	155.05740835232	479
1	5767	155.239486345178	480
1	5774	155.526023449919	481
1	5779	155.821760553198	482
1	5794	156.257131957702	483
1	5799	156.36685056297	484
1	5806	156.685888662412	485
1	5810	156.866574417955	486
1	5820	157.321338786389	487
1	5828	157.663552698249	488
1	5832	157.761401936552	489
1	5851	158.614659492545	490
1	5856	158.893202981557	491
1	5859	158.989517019497	492
1	5865	159.259537458616	493
1	5877	159.740641368312	494
1	5888	160.111412172613	495
1	5908	160.588945526957	496
1	5939	161.694975772618	497
1	5949	162.008447764114	498
1	5969	162.263097233173	499
1	5987	162.841126902669	500
1	6001	163.257016433317	501
1	6012	163.555036319651	502
1	6022	163.789528246199	503
1	6027	164.142597951066	504
1	6042	164.481500594309	505
1	6046	164.519696056437	506
1	6052	164.687621462165	507
1	6060	165.013177598395	508
1	6065	165.161923249194	509
1	6080	165.506946338886	510
1	6094	165.656398036897	511
1	6097	165.792750738068	512
1	6109	166.363862354462	513
1	6128	166.700663635587	514
1	6146	167.089556086918	515
1	6187	167.856453859492	516
1	6194	168.057889900353	517
1	6216	168.88883653093	518
1	6220	169.199749203761	519
1	6227	169.398169717676	520
1	6230	169.50650686309	521
1	6261	170.104324319685	522
1	6287	170.380101065955	523
1	6309	171.378828444119	524
1	6314	171.459656786168	525
1	6346	172.202402656648	526
1	6355	172.444374260659	527
1	6359	172.526924124228	528
1	6374	172.880698874814	529
1	6395	173.238323387102	530
1	6407	173.394599725174	531
1	6418	173.917586895754	532
1	6436	174.58160561506	533
1	6442	174.713960823521	534
1	6451	174.852968577381	535
1	6459	175.236325304366	536
1	6462	175.274819403592	537
1	6476	175.56732087601	538
1	6484	175.951531308223	539
1	6494	176.391446898717	540
1	6505	176.811891268648	541
1	6514	177.081386214839	542
1	6519	177.20114414925	543
1	6540	177.49450114721	544
1	6550	177.817500881095	545
1	6557	177.995261912415	546
1	6592	178.903851395894	547
1	6600	179.278011725246	548
1	6625	179.559259549549	549
1	6636	180.055595225185	550
1	6644	180.133847474168	551
1	6654	180.502519219768	552
1	6657	180.597532056652	553
1	6670	180.875917672725	554
1	6683	181.279518354697	555
1	6704	181.963881250716	556
1	6713	182.13492988323	557
1	6735	182.548314352712	558
1	6739	182.733072899734	559
1	6754	183.012124382156	560
1	6772	183.68341116471	561
1	6786	184.050213348641	562
1	6792	184.222954067654	563
1	6821	184.718721600063	564
1	6850	185.515906575131	565
1	6859	185.648177394252	566
1	6869	186.067814641668	567
1	6873	186.142304488869	568
1	6877	186.362573773202	569
1	6896	186.83901242335	570
1	6909	187.473121028133	571
1	6918	187.90550066191	572
1	6923	188.093781572546	573
1	6927	188.247635847076	574
1	6930	188.43269051737	575
1	6950	189.46121115108	576
1	6967	189.876096475356	577
1	6975	190.144868922919	578
1	6980	190.19315272466	579
1	6985	190.275896581929	580
1	6990	190.341668102702	581
1	7004	190.884496681189	582
1	7018	191.399537236021	583
1	7021	191.509704003012	584
1	7038	191.697276879425	585
1	7045	191.766369641789	586
1	7057	192.031267273511	587
1	7062	192.105909330092	588
1	7068	192.31172852878	589
1	7071	192.449696754968	590
1	7100	193.141405718549	591
1	7103	193.304064620702	592
[...]
11	2662	69.738176178517	164
11	2695	70.581772611126	165
11	2797	73.24990775963	166
11	2802	73.314680578642	167
11	2810	73.458556139235	168
11	2826	73.639810546097	169
11	2837	73.950685424922	170
11	2845	74.011677575148	171
11	2859	74.166939225647	172
11	2898	74.963953849132	173
11	2899	74.972473591331	174
11	2941	75.640127084075	175
11	3004	78.193563501307	176
11	3037	79.166949409234	177
11	3045	79.512582794427	178
11	3081	81.498047057	179
11	3100	81.971850298768	180
11	3104	82.101268645143	181
11	3120	82.431695275245	182
11	3125	82.570849216906	183
11	3130	82.704395572917	184
11	3144	83.361095956261	185
11	3160	83.775701743151	186
11	3165	83.86036335372	187
11	3200	84.954863258405	188
11	3204	85.154248075057	189
11	3210	85.300991649013	190
11	3250	86.47365524207	191
11	3264	86.808880513175	192
11	3275	87.172585221459	193
11	3280	87.324776582354	194
11	3302	87.741648992505	195
11	3304	87.760094035265	196
11	3347	89.283984956175	197
11	3362	89.495624867423	198
11	3389	90.226933404796	199
11	3407	90.778865428279	200
11	3454	92.21264288217	201
11	3471	92.928679572002	202
11	3486	93.387887167451	203
11	3495	93.517013636594	204
11	3519	94.384125791827	205
11	3523	94.430681226593	206
11	3550	95.010549237275	207
11	3559	95.24572472956	208
11	3566	95.371493801759	209
11	3575	95.614314120185	210
11	3614	97.076152153471	211
11	3632	97.636947284702	212
11	3644	97.975549826114	213
11	3671	98.689398109617	214
11	3688	99.146476051141	215
11	3707	99.706813474589	216
11	3715	100.046544703787	217
11	3722	100.200751131965	218
11	3740	100.955729396141	219
11	3790	101.94591118399	220
11	3817	103.034328582754	221
11	3838	103.661665305463	222
11	3845	103.811186257189	223
11	3870	104.579608039919	224
11	3882	104.735396726871	225
11	3883	104.748233778859	226
11	3929	106.587124116432	227
11	3945	107.101719247456	228
11	3949	107.146479361599	229
11	3967	107.898912438483	230
11	4035	109.573677293964	231
11	4074	110.276628758376	232
11	4080	110.335140782419	233
11	4101	110.651746862279	234
11	4114	111.348463025163	235
11	4123	111.446320636011	236
11	4141	111.78974083929	237
11	4158	112.513016009494	238
11	4181	112.839204712899	239
11	4221	113.632080300208	240
11	4240	114.167494908113	241
11	4269	114.665207572547	242
11	4286	115.131572346683	243
11	4295	115.298227282725	244
11	4316	115.990217873228	245
11	4342	116.497397878927	246
11	4352	116.600272524138	247
11	4358	116.680193196421	248
11	4403	118.672055774033	249
11	4414	118.990451105988	250
11	4419	119.04256998777	251
11	4431	119.32384463054	252
11	4455	120.154001097768	253
11	4460	120.221569780278	254
11	4468	120.552153388353	255
11	4479	120.795899552381	256
11	4485	120.979122848788	257
11	4495	121.206116039895	258
11	4523	121.578710322361	259
11	4529	121.630829335987	260
11	4552	122.202461829201	261
11	4587	122.957060179573	262
11	4601	123.209824261678	263
11	4614	123.461421294903	264
11	4644	124.051519135695	265
11	4654	124.244671889614	266
11	4693	125.700994847667	267
11	4698	125.745860066329	268
11	4709	125.992037970933	269
11	4715	126.123766798522	270
11	4721	126.165422562327	271
11	4784	127.85390242698	272
11	4785	127.876912309024	273
11	4799	128.17542096971	274
11	4831	129.26954288863	275
11	4836	129.33735210519	276
11	4851	129.640860785441	277
11	4881	130.042836329739	278
11	4907	130.723668222663	279
11	4929	131.220740091074	280
11	4949	131.491518324228	281
11	4984	132.503035216803	282
11	5007	132.754479426667	283
11	5018	132.924243848254	284
11	5034	133.24913481127	285
11	5044	133.400559509085	286
11	5066	134.017964890695	287
11	5069	134.039366551285	288
11	5084	134.178590647933	289
11	5100	134.508766128104	290
11	5187	137.349772063752	291
11	5192	137.472751454455	292
11	5208	138.333875344301	293
11	5236	139.549282500783	294
11	5270	141.029035341482	295
11	5334	143.761381004941	296
11	5354	144.126318783845	297
11	5382	145.074150406846	298
11	5401	145.622552518399	299
11	5427	146.196313362725	300
11	5438	146.416602670167	301
11	5443	146.607021243909	302
11	5457	147.12420418639	303
11	5462	147.261281633405	304
11	5468	147.319602264135	305
11	5476	147.407559390175	306
11	5480	147.440028465945	307
11	5497	147.846162808114	308
11	5518	148.438339060161	309
11	5522	148.607210778621	310
11	5537	148.852775515819	311
11	5542	148.924836338183	312
11	5562	149.792164707452	313
11	5580	150.278542275044	314
11	5602	151.033018491858	315
11	5628	151.594334771029	316
11	5636	151.957108172898	317
11	5668	152.694210447019	318
11	5672	152.811682134782	319
11	5681	152.925531256546	320
11	5687	153.017251189509	321
11	5696	153.084092414495	322
11	5702	153.265161574837	323
11	5709	153.497841433826	324
11	5718	153.716670366973	325
11	5731	154.284802795654	326
11	5747	154.741406678646	327
11	5759	155.00011514038	328
11	5784	155.927903931322	329
11	5835	157.809872419492	330
11	5883	159.805664545333	331
11	5897	160.410250468745	332
11	5931	161.369830395857	333
11	5957	162.137232082568	334
11	5968	162.261236195529	335
11	5974	162.300079165188	336
11	5997	163.143311274597	337
11	6008	163.45544331293	338
11	6017	163.605645413256	339
11	6035	164.237915094659	340
11	6047	164.532910390125	341
11	6117	166.53532908802	342
11	6122	166.588822793781	343
11	6132	166.875585536762	344
11	6169	167.465917292345	345
11	6171	167.47015270322	346
11	6179	167.615706812572	347
11	6198	168.116823369689	348
11	6239	169.736870108408	349
11	6251	169.946482242978	350
11	6252	169.952771035471	351
11	6268	170.158238585573	352
11	6272	170.193523317945	353
11	6303	171.127419992336	354
11	6325	171.570297940302	355
11	6363	172.638513452177	356
11	6378	173.034378170271	357
11	6382	173.130477915233	358
11	6427	174.288348409563	359
11	6432	174.428067523391	360
11	6439	174.647362178864	361
11	6447	174.817439260782	362
11	6473	175.451745645181	363
11	6488	176.105284334802	364
11	6510	176.951909348961	365
11	6527	177.268098832693	366
11	6534	177.410517296969	367
11	6571	178.399194279405	368
11	6591	178.903696117474	369
11	6615	179.413289289551	370
11	6617	179.433584219561	371
11	6673	180.914282899436	372
11	6693	181.497803462325	373
11	6708	182.07593246888	374
11	6717	182.163576834772	375
11	6725	182.330376975635	376
11	6745	182.81932196572	377
11	6750	182.878919349571	378
11	6783	183.878811756298	379
11	6804	184.379688959127	380
11	6806	184.397354266308	381
11	6827	184.811058176855	382
11	6832	184.93556896956	383
11	6843	185.267191645239	384
11	6847	185.32038425949	385
11	6857	185.625057653448	386
11	6882	186.446570190517	387
11	6888	186.641944365805	388
11	6893	186.790421455751	389
11	6940	188.891108659109	390
11	6953	189.495579603689	391
11	6957	189.589123089261	392
11	6963	189.773439939195	393
11	7013	191.316325615071	394
11	7026	191.555450596764	395
11	7037	191.66817976212	396
11	7054	192.005212723788	397
11	7076	192.537592711038	398
11	7080	192.606533732361	399
11	7095	193.003729486895	400
11	7110	193.446850852696	401
11	7123	193.742709629501	402
11	7132	193.96737653313	403
11	7150	194.193871622854	404
11	7201	195.912984852588	405
11	7225	196.349151880895	406
11	7226	196.353760926886	407
11	7235	196.441447018532	408
11	7241	196.535019238813	409
11	7283	197.826344345932	410
11	7305	198.442996101026	411
11	7312	198.519653674789	412
11	7330	198.946852460581	413
11	7348	199.207170090293	414
11	7355	199.499271032372	415
11	7381	200.128949352931	416
11	7394	200.444583966349	417
11	7413	201.27105413267	418
11	7450	202.239726620095	419
11	7464	202.526020539433	420
11	7482	202.902568521757	421
11	7490	203.274025245708	422
11	7503	203.752958136402	423
11	7509	203.836379488293	424
11	7535	204.660026866175	425
11	7541	204.785935588416	426
11	7571	205.486810283648	427
11	7594	205.927312057964	428
11	7614	206.888313719865	429
11	7634	207.281136360568	430
11	7663	207.662614272615	431
11	7684	208.487877774802	432
11	7696	208.583199747564	433
11	7717	208.801049624255	434
11	7751	209.511885712924	435
11	7767	210.058699541114	436
11	7789	210.677240118719	437
11	7816	211.641538778923	438
11	7820	211.678368901031	439
11	7845	212.799243831205	440
11	7849	212.853570697062	441
11	7890	213.949466409568	442
11	7895	214.01618817059	443
11	7909	214.241957819248	444
11	7919	214.538664930011	445
11	7982	216.93253028765	446
11	7998	217.277644552873	447
11	8018	217.946411436498	448
11	8024	218.114161415647	449
11	8115	221.602817029993	450
11	8123	221.718773328049	451
11	8142	222.075106578153	452
11	8165	222.799685078992	453
11	8182	223.046195689519	454
11	8228	223.976981936731	455
11	8274	225.406386133637	456
11	8292	225.940411155829	457
11	8300	226.133582932923	458
11	8327	226.90736341829	459
11	8411	229.847122117452	460
11	8423	230.30662742516	461
11	8450	231.120555685412	462
11	8468	231.470123726794	463
11	8484	231.869610502147	464
11	8559	234.063469283233	465
11	8597	235.009601408609	466
11	8602	235.105489472351	467
11	8627	235.950499011856	468
11	8644	236.285695737878	469
11	8663	236.622134716392	470
11	8683	237.333242694002	471
11	8690	237.503795162082	472
11	8697	237.656662578793	473
11	8705	237.756647780795	474
11	8743	238.624974309491	475
11	8748	238.738279924354	476
11	8753	238.861390875394	477
11	8758	239.023297824553	478
11	8763	239.128896035265	479
11	8784	239.77042621712	480
12	16	0.444990718483	1
12	42	1.025048702917	2
12	58	1.373508340185	3
12	73	1.556474905258	4
12	77	1.635940827195	5
12	159	3.401278179633	6
12	189	4.321042151758	7
12	242	5.930152856893	8
12	261	6.461547839979	9
12	279	7.066401483691	10
12	348	9.290315495959	11
12	369	9.426928474117	12
12	513	13.776105294859	13
12	521	13.983447395315	14
12	538	14.330757345519	15
12	555	14.6220537582	16
12	609	15.624165199009	17
12	616	15.754064870281	18
12	636	16.32319077332	19
12	645	16.509724731496	20
12	693	17.540196839497	21
12	712	18.136169305004	22
12	718	18.252875168152	23
12	789	20.326145079503	24
12	791	20.342255766821	25
12	900	23.445573715942	26
12	942	24.397406479761	27
12	969	25.298381399946	28
12	994	26.069621544856	29
12	1001	26.178737267068	30
12	1051	27.534249725357	31
12	1146	29.941830396478	32
12	1251	32.467476063709	33
12	1256	32.636150589967	34
12	1262	32.811442069991	35
12	1423	37.098255538172	36
12	1460	38.17237850238	37
12	1462	38.193420648032	38
12	1548	39.89812363337	39
12	1580	40.626308859533	40
12	1587	40.834726471324	41
12	1631	41.789244325528	42
12	1661	42.22898705204	43
12	1691	43.117323633716	44
12	1696	43.319208076216	45
12	1734	44.115756059847	46
12	1743	44.411751039028	47
12	1779	45.558648222038	48
12	1937	50.025754548217	49
12	1939	50.045941186598	50
12	1965	50.8526779058	51
12	2017	52.215271494555	52
12	2041	52.955131271432	53
12	2068	53.521742411387	54
12	2146	55.851088793944	55
12	2177	56.817078562596	56
12	2221	58.331083899685	57
12	2232	58.585152671484	58
12	2289	60.277546898522	59
12	2301	60.673582844453	60
12	2330	61.574435460616	61
12	2334	61.611384583643	62
12	2353	61.970718316316	63
12	2365	62.257546301324	64
12	2416	63.921698891744	65
12	2424	64.157354960259	66
12	2482	65.053648327281	67
12	2513	65.945341564751	68
12	2547	67.126628963889	69
12	2565	67.716964051966	70
12	2576	68.000875814942	71
12	2601	68.671290490925	72
12	2605	68.698990465733	73
12	2663	69.764109548702	74
12	2697	70.602496917192	75
12	2799	73.283194661398	76
12	2804	73.341552999241	77
12	2848	74.025509146877	78
12	2901	74.985758242978	79
12	2942	75.663862106226	80
12	3105	82.11280705251	81
12	3126	82.588089240044	82
12	3145	83.373926984508	83
12	3161	83.785786794374	84
12	3205	85.1900396366	85
12	3276	87.198392563146	86
12	3281	87.33907665777	87
12	3348	89.296201262075	88
12	3363	89.512013944326	89
12	3455	92.22603647711	90
12	3551	95.024958106282	91
12	3615	97.107212642935	92
12	3633	97.652863724482	93
12	3645	97.994227814305	94
12	3716	100.08260136368	95
12	3742	100.990511777561	96
12	3792	101.960862462075	97
12	3819	103.061990424899	98
12	3839	103.687254441034	99
12	3846	103.841302136989	100
12	3884	104.756748367772	101
12	3947	107.124932223247	102
12	3951	107.162495272647	103
12	3969	107.910655943047	104
12	4076	110.293838726494	105
12	4116	111.372477975411	106
12	4124	111.459894732842	107
12	4142	111.800836987096	108
12	4161	112.530401706213	109
12	4223	113.647523788657	110
12	4272	114.695834222571	111
12	4354	116.616876676233	112
12	4420	119.066929178873	113
12	4432	119.341413092618	114
12	4461	120.24211888352	115
12	4469	120.622927934394	116
12	4496	121.219336890528	117
12	4525	121.591523579723	118
12	4656	124.267349460229	119
12	4723	126.176159017932	120
12	4834	129.286366467792	121
12	4950	131.505928526167	122
12	5008	132.775046794406	123
12	5019	132.938199597543	124
12	5046	133.416086915594	125
12	5070	134.049542477337	126
12	5209	138.357033899317	127
12	5271	141.056528038187	128
12	5403	145.636835226243	129
12	5484	147.47833562596	130
12	5538	148.870283143716	131
12	5563	149.804488115983	132
12	5581	150.294329373464	133
12	5603	151.079983572693	134
12	5629	151.629934407054	135
12	5639	151.987788086864	136
12	5689	153.045281207912	137
12	5698	153.107739200879	138
12	5761	155.045048652703	139
12	5898	160.425265030681	140
12	5958	162.15996612502	141
12	5971	162.275356114061	142
12	5975	162.311397199984	143
12	5998	163.156087069164	144
12	6018	163.617940233086	145
12	6036	164.259199783929	146
12	6049	164.56458683404	147
12	6118	166.545401992236	148
12	6133	166.889993303926	149
12	6173	167.484719572681	150
12	6270	170.168751791068	151
12	6304	171.13937003241	152
12	6428	174.30185109564	153
12	6448	174.833173157895	154
12	6489	176.131142173948	155
12	6528	177.299282699922	156
12	6535	177.428477670411	157
12	6595	178.942477949294	158
12	6694	181.526365359152	159
12	6751	182.893846052195	160
12	6808	184.407441861813	161
12	6833	184.961400860946	162
12	6860	185.653669975116	163
12	6889	186.677153803319	164
12	6895	186.829394246215	165
12	7055	192.01604876869	166
12	7096	193.041804443161	167
12	7111	193.465884683467	168
12	7151	194.216080175054	169
12	7242	196.545963813949	170
12	7284	197.859197166983	171
12	7306	198.459711885692	172
12	7313	198.533944795981	173
12	7349	199.237740042159	174
12	7510	203.861153158912	175
12	7542	204.804334840866	176
12	7595	205.948325452955	177
12	7636	207.299563903363	178
12	7698	208.612403799727	179
12	7718	208.813434811928	180
12	7752	209.525579610455	181
12	7790	210.707196008037	182
12	7851	212.872049608672	183
12	8124	221.731765088867	184
12	8143	222.115229861068	185
12	8183	223.056982702876	186
12	8301	226.147320866136	187
12	8330	226.952146576789	188
12	8424	230.319848459466	189
12	8451	231.132994627211	190
12	8469	231.500807219795	191
12	8628	235.961516556959	192
12	8744	238.654008210102	193
12	8749	238.753245787546	194
12	8754	238.871993481048	195
12	8759	239.049735118321	196
12	8785	239.784906898568	197
13	16	0.444990718483	1
13	42	1.025048702917	2
13	58	1.373508340185	3
13	73	1.556474905258	4
13	77	1.635940827195	5
13	159	3.401278179633	6
13	189	4.321042151758	7
13	242	5.930152856893	8
13	261	6.461547839979	9
13	279	7.066401483691	10
13	348	9.290315495959	11
13	369	9.426928474117	12
13	513	13.776105294859	13
13	521	13.983447395315	14
13	538	14.330757345519	15
13	555	14.6220537582	16
13	609	15.624165199009	17
13	616	15.754064870281	18
13	636	16.32319077332	19
13	645	16.509724731496	20
13	693	17.540196839497	21
13	712	18.136169305004	22
13	718	18.252875168152	23
13	789	20.326145079503	24
13	791	20.342255766821	25
13	900	23.445573715942	26
13	942	24.397406479761	27
13	969	25.298381399946	28
13	994	26.069621544856	29
13	1001	26.178737267068	30
13	1051	27.534249725357	31
13	1146	29.941830396478	32
13	1251	32.467476063709	33
13	1256	32.636150589967	34
13	1262	32.811442069991	35
13	1423	37.098255538172	36
13	1460	38.17237850238	37
13	1462	38.193420648032	38
13	1548	39.89812363337	39
13	1580	40.626308859533	40
13	1587	40.834726471324	41
13	1631	41.789244325528	42
13	1661	42.22898705204	43
13	1691	43.117323633716	44
13	1696	43.319208076216	45
13	1734	44.115756059847	46
13	1743	44.411751039028	47
13	1779	45.558648222038	48
13	1937	50.025754548217	49
13	1939	50.045941186598	50
13	1965	50.8526779058	51
13	2017	52.215271494555	52
13	2041	52.955131271432	53
13	2068	53.521742411387	54
13	2146	55.851088793944	55
13	2177	56.817078562596	56
13	2221	58.331083899685	57
13	2232	58.585152671484	58
13	2289	60.277546898522	59
13	2301	60.673582844453	60
13	2330	61.574435460616	61
13	2334	61.611384583643	62
13	2353	61.970718316316	63
13	2365	62.257546301324	64
13	2416	63.921698891744	65
13	2424	64.157354960259	66
13	2482	65.053648327281	67
13	2513	65.945341564751	68
13	2547	67.126628963889	69
13	2565	67.716964051966	70
13	2576	68.000875814942	71
13	2601	68.671290490925	72
13	2605	68.698990465733	73
13	2663	69.764109548702	74
13	2697	70.602496917192	75
13	2799	73.283194661398	76
13	2804	73.341552999241	77
13	2848	74.025509146877	78
13	2901	74.985758242978	79
13	2942	75.663862106226	80
13	3105	82.11280705251	81
13	3126	82.588089240044	82
13	3145	83.373926984508	83
13	3161	83.785786794374	84
13	3205	85.1900396366	85
13	3276	87.198392563146	86
13	3281	87.33907665777	87
13	3348	89.296201262075	88
13	3363	89.512013944326	89
13	3455	92.22603647711	90
13	3551	95.024958106282	91
13	3615	97.107212642935	92
13	3633	97.652863724482	93
13	3645	97.994227814305	94
13	3716	100.08260136368	95
13	3742	100.990511777561	96
13	3792	101.960862462075	97
13	3819	103.061990424899	98
13	3839	103.687254441034	99
13	3846	103.841302136989	100
13	3884	104.756748367772	101
13	3947	107.124932223247	102
13	3951	107.162495272647	103
13	3969	107.910655943047	104
13	4076	110.293838726494	105
13	4116	111.372477975411	106
13	4124	111.459894732842	107
13	4142	111.800836987096	108
13	4161	112.530401706213	109
13	4223	113.647523788657	110
13	4272	114.695834222571	111
13	4354	116.616876676233	112
13	4420	119.066929178873	113
13	4432	119.341413092618	114
13	4461	120.24211888352	115
13	4469	120.622927934394	116
13	4496	121.219336890528	117
13	4525	121.591523579723	118
13	4656	124.267349460229	119
13	4723	126.176159017932	120
13	4834	129.286366467792	121
13	4950	131.505928526167	122
13	5008	132.775046794406	123
13	5019	132.938199597543	124
13	5046	133.416086915594	125
13	5070	134.049542477337	126
13	5209	138.357033899317	127
13	5271	141.056528038187	128
13	5403	145.636835226243	129
13	5484	147.47833562596	130
13	5538	148.870283143716	131
13	5563	149.804488115983	132
13	5581	150.294329373464	133
13	5603	151.079983572693	134
13	5629	151.629934407054	135
13	5639	151.987788086864	136
13	5689	153.045281207912	137
13	5698	153.107739200879	138
13	5761	155.045048652703	139
13	5898	160.425265030681	140
13	5958	162.15996612502	141
13	5971	162.275356114061	142
13	5975	162.311397199984	143
13	5998	163.156087069164	144
13	6018	163.617940233086	145
13	6036	164.259199783929	146
13	6049	164.56458683404	147
13	6118	166.545401992236	148
13	6133	166.889993303926	149
13	6173	167.484719572681	150
13	6270	170.168751791068	151
13	6304	171.13937003241	152
13	6428	174.30185109564	153
13	6448	174.833173157895	154
13	6489	176.131142173948	155
13	6528	177.299282699922	156
13	6535	177.428477670411	157
13	6595	178.942477949294	158
13	6694	181.526365359152	159
13	6751	182.893846052195	160
13	6808	184.407441861813	161
13	6833	184.961400860946	162
13	6860	185.653669975116	163
13	6889	186.677153803319	164
13	6895	186.829394246215	165
13	7055	192.01604876869	166
13	7096	193.041804443161	167
13	7111	193.465884683467	168
13	7151	194.216080175054	169
13	7242	196.545963813949	170
13	7284	197.859197166983	171
13	7306	198.459711885692	172
13	7313	198.533944795981	173
13	7349	199.237740042159	174
13	7510	203.861153158912	175
13	7542	204.804334840866	176
13	7595	205.948325452955	177
13	7636	207.299563903363	178
13	7698	208.612403799727	179
13	7718	208.813434811928	180
13	7752	209.525579610455	181
13	7790	210.707196008037	182
13	7851	212.872049608672	183
13	8124	221.731765088867	184
13	8143	222.115229861068	185
13	8183	223.056982702876	186
13	8301	226.147320866136	187
13	8330	226.952146576789	188
13	8424	230.319848459466	189
13	8451	231.132994627211	190
13	8469	231.500807219795	191
13	8628	235.961516556959	192
13	8744	238.654008210102	193
13	8749	238.753245787546	194
13	8754	238.871993481048	195
13	8759	239.049735118321	196
13	8785	239.784906898568	197

