version 2
run General-0-20231001-04:56:04-14156
attr configname General
attr datetime 20231001-04:56:04
attr experiment General
attr inifile omnetpp.ini
attr iterationvars ""
attr iterationvarsf ""
attr measurement ""
attr network Multihop
attr processid 14156
attr repetition 0
attr replication #0
attr resultdir results
attr runnumber 0
attr seedset 0
param Multihop.node[*].delayTime exponential(1s)

vector 0 Multihop.node[0] transmissionSignal:vector ETV
attr source transmissionSignal
attr title "tx_t, vector"
vector 1 Multihop.node[1] receptionSignal:vector ETV
attr source receptionSignal
attr title "rx_t, vector"
vector 2 Multihop.node[1] transmissionSignal:vector ETV
attr source transmissionSignal
attr title "tx_t, vector"
vector 3 Multihop.node[2] receptionSignal:vector ETV
attr source receptionSignal
attr title "rx_t, vector"
vector 4 Multihop.node[2] transmissionSignal:vector ETV
attr source transmissionSignal
attr title "tx_t, vector"
vector 5 Multihop.node[3] receptionSignal:vector ETV
attr source receptionSignal
attr title "rx_t, vector"
vector 6 Multihop.node[3] transmissionSignal:vector ETV
attr source transmissionSignal
attr title "tx_t, vector"
vector 7 Multihop.node[4] receptionSignal:vector ETV
attr source receptionSignal
attr title "rx_t, vector"
vector 8 Multihop.node[4] transmissionSignal:vector ETV
attr source transmissionSignal
attr title "tx_t, vector"
vector 9 Multihop.node[5] receptionSignal:vector ETV
attr source receptionSignal
attr title "rx_t, vector"
0	0	0	1
0	1	0.795874504566	2
0	7	1.795874504566	3
0	13	2.795874504566	4
0	19	3.795874504566	5
0	25	4.795874504566	6
0	31	5.795874504566	7
0	37	6.795874504566	8
0	43	7.795874504566	9
0	49	8.795874504566	10
0	55	9.795874504566	11
0	61	10.795874504566	12
0	67	11.795874504566	13
0	73	12.795874504566	14
0	79	13.795874504566	15
0	85	14.795874504566	16
0	91	15.795874504566	17
0	97	16.795874504566	18
0	103	17.795874504566	19
0	109	18.795874504566	20
0	115	19.795874504566	21
0	121	20.795874504566	22
0	127	21.795874504566	23
0	133	22.795874504566	24
0	139	23.795874504566	25
0	145	24.795874504566	26
0	151	25.795874504566	27
0	157	26.795874504566	28
0	163	27.795874504566	29
0	169	28.795874504566	30
0	175	29.795874504566	31
0	181	30.795874504566	32
0	187	31.795874504566	33
0	193	32.795874504566	34
0	199	33.795874504566	35
0	205	34.795874504566	36
0	211	35.795874504566	37
0	217	36.795874504566	38
0	223	37.795874504566	39
0	229	38.795874504566	40
0	235	39.795874504566	41
0	241	40.795874504566	42
0	247	41.795874504566	43
0	253	42.795874504566	44
0	259	43.795874504566	45
0	265	44.795874504566	46
0	271	45.795874504566	47
0	277	46.795874504566	48
0	283	47.795874504566	49
0	289	48.795874504566	50
0	295	49.795874504566	51
0	301	50.795874504566	52
0	307	51.795874504566	53
0	313	52.795874504566	54
0	319	53.795874504566	55
0	325	54.795874504566	56
0	331	55.795874504566	57
0	337	56.795874504566	58
0	343	57.795874504566	59
0	349	58.795874504566	60
0	355	59.795874504566	61
0	361	60.795874504566	62
0	367	61.795874504566	63
0	373	62.795874504566	64
0	379	63.795874504566	65
0	385	64.795874504566	66
0	391	65.795874504566	67
0	397	66.795874504566	68
0	403	67.795874504566	69
0	409	68.795874504566	70
0	415	69.795874504566	71
0	421	70.795874504566	72
0	427	71.795874504566	73
0	433	72.795874504566	74
0	439	73.795874504566	75
0	445	74.795874504566	76
0	451	75.795874504566	77
0	457	76.795874504566	78
0	463	77.795874504566	79
0	469	78.795874504566	80
0	475	79.795874504566	81
0	481	80.795874504566	82
0	487	81.795874504566	83
0	493	82.795874504566	84
0	499	83.795874504566	85
0	505	84.795874504566	86
0	511	85.795874504566	87
0	517	86.795874504566	88
0	523	87.795874504566	89
0	529	88.795874504566	90
0	535	89.795874504566	91
0	541	90.795874504566	92
0	547	91.795874504566	93
0	553	92.795874504566	94
0	559	93.795874504566	95
0	565	94.795874504566	96
0	571	95.795874504566	97
0	577	96.795874504566	98
0	583	97.795874504566	99
0	589	98.795874504566	100
0	595	99.795874504566	101
0	601	100.795874504566	102
0	607	101.795874504566	103
0	613	102.795874504566	104
0	619	103.795874504566	105
0	625	104.795874504566	106
0	631	105.795874504566	107
0	637	106.795874504566	108
0	643	107.795874504566	109
0	649	108.795874504566	110
0	655	109.795874504566	111
0	661	110.795874504566	112
0	667	111.795874504566	113
0	673	112.795874504566	114
0	679	113.795874504566	115
0	685	114.795874504566	116
0	691	115.795874504566	117
0	697	116.795874504566	118
0	703	117.795874504566	119
0	709	118.795874504566	120
0	715	119.795874504566	121
0	721	120.795874504566	122
0	727	121.795874504566	123
0	733	122.795874504566	124
0	739	123.795874504566	125
0	745	124.795874504566	126
0	751	125.795874504566	127
0	757	126.795874504566	128
0	763	127.795874504566	129
0	769	128.795874504566	130
0	775	129.795874504566	131
0	781	130.795874504566	132
0	787	131.795874504566	133
0	793	132.795874504566	134
0	799	133.795874504566	135
0	805	134.795874504566	136
0	811	135.795874504566	137
0	817	136.795874504566	138
0	823	137.795874504566	139
0	829	138.795874504566	140
0	835	139.795874504566	141
0	841	140.795874504566	142
0	847	141.795874504566	143
0	853	142.795874504566	144
0	859	143.795874504566	145
0	865	144.795874504566	146
0	871	145.795874504566	147
0	877	146.795874504566	148
0	883	147.795874504566	149
0	889	148.795874504566	150
0	895	149.795874504566	151
0	901	150.795874504566	152
0	907	151.795874504566	153
0	913	152.795874504566	154
0	919	153.795874504566	155
0	925	154.795874504566	156
0	931	155.795874504566	157
0	937	156.795874504566	158
0	943	157.795874504566	159
0	949	158.795874504566	160
0	955	159.795874504566	161
0	961	160.795874504566	162
0	967	161.795874504566	163
0	973	162.795874504566	164
0	979	163.795874504566	165
0	985	164.795874504566	166
0	991	165.795874504566	167
0	997	166.795874504566	168
0	1003	167.795874504566	169
0	1009	168.795874504566	170
0	1015	169.795874504566	171
0	1021	170.795874504566	172
0	1027	171.795874504566	173
0	1033	172.795874504566	174
0	1039	173.795874504566	175
0	1045	174.795874504566	176
0	1051	175.795874504566	177
0	1057	176.795874504566	178
0	1063	177.795874504566	179
0	1069	178.795874504566	180
0	1075	179.795874504566	181
0	1081	180.795874504566	182
0	1087	181.795874504566	183
0	1093	182.795874504566	184
0	1099	183.795874504566	185
0	1105	184.795874504566	186
0	1111	185.795874504566	187
0	1117	186.795874504566	188
0	1123	187.795874504566	189
0	1129	188.795874504566	190
0	1135	189.795874504566	191
0	1141	190.795874504566	192
0	1147	191.795874504566	193
0	1153	192.795874504566	194
0	1159	193.795874504566	195
0	1165	194.795874504566	196
0	1171	195.795874504566	197
0	1177	196.795874504566	198
0	1183	197.795874504566	199
0	1189	198.795874504566	200
0	1195	199.795874504566	201
1	2	0.895874504566	1
1	8	1.895874504566	2
1	14	2.895874504566	3
1	20	3.895874504566	4
1	26	4.895874504566	5
1	32	5.895874504566	6
1	38	6.895874504566	7
1	44	7.895874504566	8
1	50	8.895874504566	9
1	56	9.895874504566	10
1	62	10.895874504566	11
1	68	11.895874504566	12
1	74	12.895874504566	13
1	80	13.895874504566	14
1	86	14.895874504566	15
1	92	15.895874504566	16
1	98	16.895874504566	17
1	104	17.895874504566	18
1	110	18.895874504566	19
1	116	19.895874504566	20
1	122	20.895874504566	21
1	128	21.895874504566	22
1	134	22.895874504566	23
1	140	23.895874504566	24
1	146	24.895874504566	25
1	152	25.895874504566	26
1	158	26.895874504566	27
1	164	27.895874504566	28
1	170	28.895874504566	29
1	176	29.895874504566	30
1	182	30.895874504566	31
1	188	31.895874504566	32
1	194	32.895874504566	33
1	200	33.895874504566	34
1	206	34.895874504566	35
1	212	35.895874504566	36
1	218	36.895874504566	37
1	224	37.895874504566	38
1	230	38.895874504566	39
1	236	39.895874504566	40
1	242	40.895874504566	41
1	248	41.895874504566	42
1	254	42.895874504566	43
1	260	43.895874504566	44
1	266	44.895874504566	45
1	272	45.895874504566	46
1	278	46.895874504566	47
1	284	47.895874504566	48
1	290	48.895874504566	49
1	296	49.895874504566	50
1	302	50.895874504566	51
1	308	51.895874504566	52
1	314	52.895874504566	53
1	320	53.895874504566	54
1	326	54.895874504566	55
1	332	55.895874504566	56
1	338	56.895874504566	57
1	344	57.895874504566	58
1	350	58.895874504566	59
1	356	59.895874504566	60
1	362	60.895874504566	61
1	368	61.895874504566	62
1	374	62.895874504566	63
1	380	63.895874504566	64
1	386	64.895874504566	65
1	392	65.895874504566	66
1	398	66.895874504566	67
1	404	67.895874504566	68
1	410	68.895874504566	69
1	416	69.895874504566	70
1	422	70.895874504566	71
1	428	71.895874504566	72
1	434	72.895874504566	73
1	440	73.895874504566	74
1	446	74.895874504566	75
1	452	75.895874504566	76
1	458	76.895874504566	77
1	464	77.895874504566	78
1	470	78.895874504566	79
1	476	79.895874504566	80
1	482	80.895874504566	81
1	488	81.895874504566	82
1	494	82.895874504566	83
1	500	83.895874504566	84
1	506	84.895874504566	85
1	512	85.895874504566	86
1	518	86.895874504566	87
1	524	87.895874504566	88
1	530	88.895874504566	89
1	536	89.895874504566	90
1	542	90.895874504566	91
1	548	91.895874504566	92
1	554	92.895874504566	93
1	560	93.895874504566	94
1	566	94.895874504566	95
1	572	95.895874504566	96
1	578	96.895874504566	97
1	584	97.895874504566	98
1	590	98.895874504566	99
1	596	99.895874504566	100
1	602	100.895874504566	101
1	608	101.895874504566	102
1	614	102.895874504566	103
1	620	103.895874504566	104
1	626	104.895874504566	105
1	632	105.895874504566	106
1	638	106.895874504566	107
1	644	107.895874504566	108
1	650	108.895874504566	109
1	656	109.895874504566	110
1	662	110.895874504566	111
1	668	111.895874504566	112
1	674	112.895874504566	113
1	680	113.895874504566	114
1	686	114.895874504566	115
1	692	115.895874504566	116
1	698	116.895874504566	117
1	704	117.895874504566	118
1	710	118.895874504566	119
1	716	119.895874504566	120
1	722	120.895874504566	121
1	728	121.895874504566	122
1	734	122.895874504566	123
1	740	123.895874504566	124
1	746	124.895874504566	125
1	752	125.895874504566	126
1	758	126.895874504566	127
1	764	127.895874504566	128
1	770	128.895874504566	129
1	776	129.895874504566	130
1	782	130.895874504566	131
1	788	131.895874504566	132
1	794	132.895874504566	133
1	800	133.895874504566	134
1	806	134.895874504566	135
1	812	135.895874504566	136
1	818	136.895874504566	137
1	824	137.895874504566	138
1	830	138.895874504566	139
1	836	139.895874504566	140
1	842	140.895874504566	141
1	848	141.895874504566	142
1	854	142.895874504566	143
1	860	143.895874504566	144
1	866	144.895874504566	145
1	872	145.895874504566	146
1	878	146.895874504566	147
1	884	147.895874504566	148
1	890	148.895874504566	149
1	896	149.895874504566	150
1	902	150.895874504566	151
1	908	151.895874504566	152
1	914	152.895874504566	153
1	920	153.895874504566	154
1	926	154.895874504566	155
1	932	155.895874504566	156
1	938	156.895874504566	157
1	944	157.895874504566	158
1	950	158.895874504566	159
1	956	159.895874504566	160
1	962	160.895874504566	161
1	968	161.895874504566	162
1	974	162.895874504566	163
1	980	163.895874504566	164
1	986	164.895874504566	165
1	992	165.895874504566	166
1	998	166.895874504566	167
1	1004	167.895874504566	168
1	1010	168.895874504566	169
1	1016	169.895874504566	170
1	1022	170.895874504566	171
1	1028	171.895874504566	172
1	1034	172.895874504566	173
1	1040	173.895874504566	174
1	1046	174.895874504566	175
1	1052	175.895874504566	176
1	1058	176.895874504566	177
1	1064	177.895874504566	178
1	1070	178.895874504566	179
1	1076	179.895874504566	180
1	1082	180.895874504566	181
1	1088	181.895874504566	182
1	1094	182.895874504566	183
1	1100	183.895874504566	184
1	1106	184.895874504566	185
1	1112	185.895874504566	186
1	1118	186.895874504566	187
1	1124	187.895874504566	188
1	1130	188.895874504566	189
1	1136	189.895874504566	190
1	1142	190.895874504566	191
1	1148	191.895874504566	192
1	1154	192.895874504566	193
1	1160	193.895874504566	194
1	1166	194.895874504566	195
1	1172	195.895874504566	196
1	1178	196.895874504566	197
1	1184	197.895874504566	198
1	1190	198.895874504566	199
1	1196	199.895874504566	200
2	2	0.895874504566	1
2	8	1.895874504566	2
2	14	2.895874504566	3
2	20	3.895874504566	4
2	26	4.895874504566	5
2	32	5.895874504566	6
2	38	6.895874504566	7
2	44	7.895874504566	8
2	50	8.895874504566	9
2	56	9.895874504566	10
2	62	10.895874504566	11
2	68	11.895874504566	12
2	74	12.895874504566	13
2	80	13.895874504566	14
2	86	14.895874504566	15
2	92	15.895874504566	16
2	98	16.895874504566	17
2	104	17.895874504566	18
2	110	18.895874504566	19
2	116	19.895874504566	20
2	122	20.895874504566	21
2	128	21.895874504566	22
2	134	22.895874504566	23
2	140	23.895874504566	24
2	146	24.895874504566	25
2	152	25.895874504566	26
2	158	26.895874504566	27
2	164	27.895874504566	28
2	170	28.895874504566	29
2	176	29.895874504566	30
2	182	30.895874504566	31
2	188	31.895874504566	32
2	194	32.895874504566	33
2	200	33.895874504566	34
2	206	34.895874504566	35
2	212	35.895874504566	36
2	218	36.895874504566	37
2	224	37.895874504566	38
2	230	38.895874504566	39
2	236	39.895874504566	40
2	242	40.895874504566	41
2	248	41.895874504566	42
2	254	42.895874504566	43
2	260	43.895874504566	44
2	266	44.895874504566	45
2	272	45.895874504566	46
2	278	46.895874504566	47
2	284	47.895874504566	48
2	290	48.895874504566	49
2	296	49.895874504566	50
2	302	50.895874504566	51
2	308	51.895874504566	52
2	314	52.895874504566	53
2	320	53.895874504566	54
2	326	54.895874504566	55
2	332	55.895874504566	56
2	338	56.895874504566	57
2	344	57.895874504566	58
2	350	58.895874504566	59
2	356	59.895874504566	60
2	362	60.895874504566	61
2	368	61.895874504566	62
2	374	62.895874504566	63
2	380	63.895874504566	64
2	386	64.895874504566	65
2	392	65.895874504566	66
2	398	66.895874504566	67
2	404	67.895874504566	68
2	410	68.895874504566	69
2	416	69.895874504566	70
2	422	70.895874504566	71
2	428	71.895874504566	72
2	434	72.895874504566	73
2	440	73.895874504566	74
2	446	74.895874504566	75
2	452	75.895874504566	76
2	458	76.895874504566	77
2	464	77.895874504566	78
2	470	78.895874504566	79
2	476	79.895874504566	80
2	482	80.895874504566	81
2	488	81.895874504566	82
2	494	82.895874504566	83
2	500	83.895874504566	84
2	506	84.895874504566	85
2	512	85.895874504566	86
2	518	86.895874504566	87
2	524	87.895874504566	88
2	530	88.895874504566	89
2	536	89.895874504566	90
2	542	90.895874504566	91
2	548	91.895874504566	92
2	554	92.895874504566	93
2	560	93.895874504566	94
2	566	94.895874504566	95
2	572	95.895874504566	96
2	578	96.895874504566	97
2	584	97.895874504566	98
2	590	98.895874504566	99
2	596	99.895874504566	100
2	602	100.895874504566	101
2	608	101.895874504566	102
2	614	102.895874504566	103
2	620	103.895874504566	104
2	626	104.895874504566	105
2	632	105.895874504566	106
2	638	106.895874504566	107
2	644	107.895874504566	108
2	650	108.895874504566	109
2	656	109.895874504566	110
2	662	110.895874504566	111
2	668	111.895874504566	112
2	674	112.895874504566	113
2	680	113.895874504566	114
2	686	114.895874504566	115
2	692	115.895874504566	116
2	698	116.895874504566	117
2	704	117.895874504566	118
2	710	118.895874504566	119
2	716	119.895874504566	120
2	722	120.895874504566	121
2	728	121.895874504566	122
2	734	122.895874504566	123
2	740	123.895874504566	124
2	746	124.895874504566	125
2	752	125.895874504566	126
2	758	126.895874504566	127
2	764	127.895874504566	128
2	770	128.895874504566	129
2	776	129.895874504566	130
2	782	130.895874504566	131
2	788	131.895874504566	132
2	794	132.895874504566	133
2	800	133.895874504566	134
2	806	134.895874504566	135
2	812	135.895874504566	136
2	818	136.895874504566	137
2	824	137.895874504566	138
2	830	138.895874504566	139
2	836	139.895874504566	140
2	842	140.895874504566	141
2	848	141.895874504566	142
2	854	142.895874504566	143
2	860	143.895874504566	144
2	866	144.895874504566	145
2	872	145.895874504566	146
2	878	146.895874504566	147
2	884	147.895874504566	148
2	890	148.895874504566	149
2	896	149.895874504566	150
2	902	150.895874504566	151
2	908	151.895874504566	152
2	914	152.895874504566	153
2	920	153.895874504566	154
2	926	154.895874504566	155
2	932	155.895874504566	156
2	938	156.895874504566	157
2	944	157.895874504566	158
2	950	158.895874504566	159
2	956	159.895874504566	160
2	962	160.895874504566	161
2	968	161.895874504566	162
2	974	162.895874504566	163
2	980	163.895874504566	164
2	986	164.895874504566	165
2	992	165.895874504566	166
2	998	166.895874504566	167
2	1004	167.895874504566	168
2	1010	168.895874504566	169
2	1016	169.895874504566	170
2	1022	170.895874504566	171
2	1028	171.895874504566	172
2	1034	172.895874504566	173
2	1040	173.895874504566	174
2	1046	174.895874504566	175
2	1052	175.895874504566	176
2	1058	176.895874504566	177
2	1064	177.895874504566	178
2	1070	178.895874504566	179
2	1076	179.895874504566	180
2	1082	180.895874504566	181
2	1088	181.895874504566	182
2	1094	182.895874504566	183
2	1100	183.895874504566	184
2	1106	184.895874504566	185
2	1112	185.895874504566	186
2	1118	186.895874504566	187
2	1124	187.895874504566	188
2	1130	188.895874504566	189
2	1136	189.895874504566	190
2	1142	190.895874504566	191
2	1148	191.895874504566	192
2	1154	192.895874504566	193
2	1160	193.895874504566	194
2	1166	194.895874504566	195
2	1172	195.895874504566	196
2	1178	196.895874504566	197
2	1184	197.895874504566	198
2	1190	198.895874504566	199
2	1196	199.895874504566	200
3	3	0.995874504566	1
3	9	1.995874504566	2
3	15	2.995874504566	3
3	21	3.995874504566	4
3	27	4.995874504566	5
3	33	5.995874504566	6
3	39	6.995874504566	7
3	45	7.995874504566	8
3	51	8.995874504566	9
3	57	9.995874504566	10
3	63	10.995874504566	11
3	69	11.995874504566	12
3	75	12.995874504566	13
3	81	13.995874504566	14
3	87	14.995874504566	15
3	93	15.995874504566	16
3	99	16.995874504566	17
3	105	17.995874504566	18
3	111	18.995874504566	19
3	117	19.995874504566	20
3	123	20.995874504566	21
3	129	21.995874504566	22
3	135	22.995874504566	23
3	141	23.995874504566	24
3	147	24.995874504566	25
3	153	25.995874504566	26
3	159	26.995874504566	27
3	165	27.995874504566	28
3	171	28.995874504566	29
3	177	29.995874504566	30
3	183	30.995874504566	31
3	189	31.995874504566	32
3	195	32.995874504566	33
3	201	33.995874504566	34
3	207	34.995874504566	35
3	213	35.995874504566	36
3	219	36.995874504566	37
3	225	37.995874504566	38
3	231	38.995874504566	39
3	237	39.995874504566	40
3	243	40.995874504566	41
3	249	41.995874504566	42
3	255	42.995874504566	43
3	261	43.995874504566	44
3	267	44.995874504566	45
3	273	45.995874504566	46
3	279	46.995874504566	47
3	285	47.995874504566	48
3	291	48.995874504566	49
3	297	49.995874504566	50
3	303	50.995874504566	51
3	309	51.995874504566	52
3	315	52.995874504566	53
3	321	53.995874504566	54
3	327	54.995874504566	55
3	333	55.995874504566	56
3	339	56.995874504566	57
3	345	57.995874504566	58
3	351	58.995874504566	59
3	357	59.995874504566	60
3	363	60.995874504566	61
3	369	61.995874504566	62
3	375	62.995874504566	63
3	381	63.995874504566	64
3	387	64.995874504566	65
3	393	65.995874504566	66
3	399	66.995874504566	67
3	405	67.995874504566	68
3	411	68.995874504566	69
3	417	69.995874504566	70
3	423	70.995874504566	71
3	429	71.995874504566	72
3	435	72.995874504566	73
3	441	73.995874504566	74
3	447	74.995874504566	75
3	453	75.995874504566	76
3	459	76.995874504566	77
3	465	77.995874504566	78
3	471	78.995874504566	79
3	477	79.995874504566	80
3	483	80.995874504566	81
3	489	81.995874504566	82
3	495	82.995874504566	83
3	501	83.995874504566	84
3	507	84.995874504566	85
3	513	85.995874504566	86
3	519	86.995874504566	87
3	525	87.995874504566	88
3	531	88.995874504566	89
3	537	89.995874504566	90
3	543	90.995874504566	91
3	549	91.995874504566	92
3	555	92.995874504566	93
3	561	93.995874504566	94
3	567	94.995874504566	95
3	573	95.995874504566	96
3	579	96.995874504566	97
3	585	97.995874504566	98
3	591	98.995874504566	99
3	597	99.995874504566	100
3	603	100.995874504566	101
3	609	101.995874504566	102
3	615	102.995874504566	103
3	621	103.995874504566	104
3	627	104.995874504566	105
3	633	105.995874504566	106
3	639	106.995874504566	107
3	645	107.995874504566	108
3	651	108.995874504566	109
3	657	109.995874504566	110
3	663	110.995874504566	111
3	669	111.995874504566	112
3	675	112.995874504566	113
3	681	113.995874504566	114
3	687	114.995874504566	115
3	693	115.995874504566	116
3	699	116.995874504566	117
3	705	117.995874504566	118
3	711	118.995874504566	119
3	717	119.995874504566	120
3	723	120.995874504566	121
3	729	121.995874504566	122
3	735	122.995874504566	123
3	741	123.995874504566	124
3	747	124.995874504566	125
3	753	125.995874504566	126
3	759	126.995874504566	127
3	765	127.995874504566	128
3	771	128.995874504566	129
3	777	129.995874504566	130
3	783	130.995874504566	131
3	789	131.995874504566	132
3	795	132.995874504566	133
3	801	133.995874504566	134
3	807	134.995874504566	135
3	813	135.995874504566	136
3	819	136.995874504566	137
3	825	137.995874504566	138
3	831	138.995874504566	139
3	837	139.995874504566	140
3	843	140.995874504566	141
3	849	141.995874504566	142
3	855	142.995874504566	143
3	861	143.995874504566	144
3	867	144.995874504566	145
3	873	145.995874504566	146
3	879	146.995874504566	147
3	885	147.995874504566	148
3	891	148.995874504566	149
3	897	149.995874504566	150
3	903	150.995874504566	151
3	909	151.995874504566	152
3	915	152.995874504566	153
3	921	153.995874504566	154
3	927	154.995874504566	155
3	933	155.995874504566	156
3	939	156.995874504566	157
3	945	157.995874504566	158
3	951	158.995874504566	159
3	957	159.995874504566	160
3	963	160.995874504566	161
3	969	161.995874504566	162
3	975	162.995874504566	163
3	981	163.995874504566	164
3	987	164.995874504566	165
3	993	165.995874504566	166
3	999	166.995874504566	167
3	1005	167.995874504566	168
3	1011	168.995874504566	169
3	1017	169.995874504566	170
3	1023	170.995874504566	171
3	1029	171.995874504566	172
3	1035	172.995874504566	173
3	1041	173.995874504566	174
3	1047	174.995874504566	175
3	1053	175.995874504566	176
3	1059	176.995874504566	177
3	1065	177.995874504566	178
3	1071	178.995874504566	179
3	1077	179.995874504566	180
3	1083	180.995874504566	181
3	1089	181.995874504566	182
3	1095	182.995874504566	183
3	1101	183.995874504566	184
3	1107	184.995874504566	185
3	1113	185.995874504566	186
3	1119	186.995874504566	187
3	1125	187.995874504566	188
3	1131	188.995874504566	189
3	1137	189.995874504566	190
3	1143	190.995874504566	191
3	1149	191.995874504566	192
3	1155	192.995874504566	193
3	1161	193.995874504566	194
3	1167	194.995874504566	195
3	1173	195.995874504566	196
3	1179	196.995874504566	197
3	1185	197.995874504566	198
3	1191	198.995874504566	199
3	1197	199.995874504566	200
4	3	0.995874504566	1
4	9	1.995874504566	2
4	15	2.995874504566	3
4	21	3.995874504566	4
4	27	4.995874504566	5
4	33	5.995874504566	6
4	39	6.995874504566	7
4	45	7.995874504566	8
4	51	8.995874504566	9
4	57	9.995874504566	10
4	63	10.995874504566	11
4	69	11.995874504566	12
4	75	12.995874504566	13
4	81	13.995874504566	14
4	87	14.995874504566	15
4	93	15.995874504566	16
4	99	16.995874504566	17
4	105	17.995874504566	18
4	111	18.995874504566	19
4	117	19.995874504566	20
4	123	20.995874504566	21
4	129	21.995874504566	22
4	135	22.995874504566	23
4	141	23.995874504566	24
4	147	24.995874504566	25
4	153	25.995874504566	26
4	159	26.995874504566	27
4	165	27.995874504566	28
4	171	28.995874504566	29
4	177	29.995874504566	30
4	183	30.995874504566	31
4	189	31.995874504566	32
4	195	32.995874504566	33
4	201	33.995874504566	34
4	207	34.995874504566	35
4	213	35.995874504566	36
4	219	36.995874504566	37
4	225	37.995874504566	38
4	231	38.995874504566	39
4	237	39.995874504566	40
4	243	40.995874504566	41
4	249	41.995874504566	42
4	255	42.995874504566	43
4	261	43.995874504566	44
4	267	44.995874504566	45
4	273	45.995874504566	46
4	279	46.995874504566	47
4	285	47.995874504566	48
4	291	48.995874504566	49
4	297	49.995874504566	50
4	303	50.995874504566	51
4	309	51.995874504566	52
4	315	52.995874504566	53
4	321	53.995874504566	54
4	327	54.995874504566	55
4	333	55.995874504566	56
4	339	56.995874504566	57
4	345	57.995874504566	58
4	351	58.995874504566	59
4	357	59.995874504566	60
4	363	60.995874504566	61
4	369	61.995874504566	62
4	375	62.995874504566	63
4	381	63.995874504566	64
4	387	64.995874504566	65
4	393	65.995874504566	66
4	399	66.995874504566	67
4	405	67.995874504566	68
4	411	68.995874504566	69
4	417	69.995874504566	70
4	423	70.995874504566	71
4	429	71.995874504566	72
4	435	72.995874504566	73
4	441	73.995874504566	74
4	447	74.995874504566	75
4	453	75.995874504566	76
4	459	76.995874504566	77
4	465	77.995874504566	78
4	471	78.995874504566	79
4	477	79.995874504566	80
4	483	80.995874504566	81
4	489	81.995874504566	82
4	495	82.995874504566	83
4	501	83.995874504566	84
4	507	84.995874504566	85
4	513	85.995874504566	86
4	519	86.995874504566	87
4	525	87.995874504566	88
4	531	88.995874504566	89
4	537	89.995874504566	90
4	543	90.995874504566	91
4	549	91.995874504566	92
4	555	92.995874504566	93
4	561	93.995874504566	94
4	567	94.995874504566	95
4	573	95.995874504566	96
4	579	96.995874504566	97
4	585	97.995874504566	98
4	591	98.995874504566	99
4	597	99.995874504566	100
4	603	100.995874504566	101
4	609	101.995874504566	102
4	615	102.995874504566	103
4	621	103.995874504566	104
4	627	104.995874504566	105
4	633	105.995874504566	106
4	639	106.995874504566	107
4	645	107.995874504566	108
4	651	108.995874504566	109
4	657	109.995874504566	110
4	663	110.995874504566	111
4	669	111.995874504566	112
4	675	112.995874504566	113
4	681	113.995874504566	114
4	687	114.995874504566	115
4	693	115.995874504566	116
4	699	116.995874504566	117
4	705	117.995874504566	118
4	711	118.995874504566	119
4	717	119.995874504566	120
4	723	120.995874504566	121
4	729	121.995874504566	122
4	735	122.995874504566	123
4	741	123.995874504566	124
4	747	124.995874504566	125
4	753	125.995874504566	126
4	759	126.995874504566	127
4	765	127.995874504566	128
4	771	128.995874504566	129
4	777	129.995874504566	130
4	783	130.995874504566	131
4	789	131.995874504566	132
4	795	132.995874504566	133
4	801	133.995874504566	134
4	807	134.995874504566	135
4	813	135.995874504566	136
4	819	136.995874504566	137
4	825	137.995874504566	138
4	831	138.995874504566	139
4	837	139.995874504566	140
4	843	140.995874504566	141
4	849	141.995874504566	142
4	855	142.995874504566	143
4	861	143.995874504566	144
4	867	144.995874504566	145
4	873	145.995874504566	146
4	879	146.995874504566	147
4	885	147.995874504566	148
4	891	148.995874504566	149
4	897	149.995874504566	150
4	903	150.995874504566	151
4	909	151.995874504566	152
4	915	152.995874504566	153
4	921	153.995874504566	154
4	927	154.995874504566	155
4	933	155.995874504566	156
4	939	156.995874504566	157
4	945	157.995874504566	158
4	951	158.995874504566	159
4	957	159.995874504566	160
4	963	160.995874504566	161
4	969	161.995874504566	162
4	975	162.995874504566	163
4	981	163.995874504566	164
4	987	164.995874504566	165
4	993	165.995874504566	166
4	999	166.995874504566	167
4	1005	167.995874504566	168
4	1011	168.995874504566	169
4	1017	169.995874504566	170
4	1023	170.995874504566	171
4	1029	171.995874504566	172
4	1035	172.995874504566	173
4	1041	173.995874504566	174
4	1047	174.995874504566	175
4	1053	175.995874504566	176
4	1059	176.995874504566	177
4	1065	177.995874504566	178
4	1071	178.995874504566	179
4	1077	179.995874504566	180
4	1083	180.995874504566	181
4	1089	181.995874504566	182
4	1095	182.995874504566	183
4	1101	183.995874504566	184
4	1107	184.995874504566	185
4	1113	185.995874504566	186
4	1119	186.995874504566	187
4	1125	187.995874504566	188
4	1131	188.995874504566	189
4	1137	189.995874504566	190
4	1143	190.995874504566	191
4	1149	191.995874504566	192
4	1155	192.995874504566	193
4	1161	193.995874504566	194
4	1167	194.995874504566	195
4	1173	195.995874504566	196
4	1179	196.995874504566	197
4	1185	197.995874504566	198
4	1191	198.995874504566	199
4	1197	199.995874504566	200
5	4	1.095874504566	1
5	10	2.095874504566	2
5	16	3.095874504566	3
5	22	4.095874504566	4
5	28	5.095874504566	5
5	34	6.095874504566	6
5	40	7.095874504566	7
5	46	8.095874504566	8
5	52	9.095874504566	9
5	58	10.095874504566	10
5	64	11.095874504566	11
5	70	12.095874504566	12
5	76	13.095874504566	13
5	82	14.095874504566	14
5	88	15.095874504566	15
5	94	16.095874504566	16
5	100	17.095874504566	17
5	106	18.095874504566	18
5	112	19.095874504566	19
5	118	20.095874504566	20
5	124	21.095874504566	21
5	130	22.095874504566	22
5	136	23.095874504566	23
5	142	24.095874504566	24
5	148	25.095874504566	25
5	154	26.095874504566	26
5	160	27.095874504566	27
5	166	28.095874504566	28
5	172	29.095874504566	29
5	178	30.095874504566	30
5	184	31.095874504566	31
5	190	32.095874504566	32
5	196	33.095874504566	33
5	202	34.095874504566	34
5	208	35.095874504566	35
5	214	36.095874504566	36
5	220	37.095874504566	37
5	226	38.095874504566	38
5	232	39.095874504566	39
5	238	40.095874504566	40
5	244	41.095874504566	41
5	250	42.095874504566	42
5	256	43.095874504566	43
5	262	44.095874504566	44
5	268	45.095874504566	45
5	274	46.095874504566	46
5	280	47.095874504566	47
5	286	48.095874504566	48
5	292	49.095874504566	49
5	298	50.095874504566	50
5	304	51.095874504566	51
5	310	52.095874504566	52
5	316	53.095874504566	53
5	322	54.095874504566	54
5	328	55.095874504566	55
5	334	56.095874504566	56
5	340	57.095874504566	57
5	346	58.095874504566	58
5	352	59.095874504566	59
5	358	60.095874504566	60
5	364	61.095874504566	61
5	370	62.095874504566	62
5	376	63.095874504566	63
5	382	64.095874504566	64
5	388	65.095874504566	65
5	394	66.095874504566	66
5	400	67.095874504566	67
5	406	68.095874504566	68
5	412	69.095874504566	69
5	418	70.095874504566	70
5	424	71.095874504566	71
5	430	72.095874504566	72
5	436	73.095874504566	73
5	442	74.095874504566	74
5	448	75.095874504566	75
5	454	76.095874504566	76
5	460	77.095874504566	77
5	466	78.095874504566	78
5	472	79.095874504566	79
5	478	80.095874504566	80
5	484	81.095874504566	81
5	490	82.095874504566	82
5	496	83.095874504566	83
5	502	84.095874504566	84
5	508	85.095874504566	85
5	514	86.095874504566	86
5	520	87.095874504566	87
5	526	88.095874504566	88
5	532	89.095874504566	89
5	538	90.095874504566	90
5	544	91.095874504566	91
5	550	92.095874504566	92
5	556	93.095874504566	93
5	562	94.095874504566	94
5	568	95.095874504566	95
5	574	96.095874504566	96
5	580	97.095874504566	97
5	586	98.095874504566	98
5	592	99.095874504566	99
5	598	100.095874504566	100
5	604	101.095874504566	101
5	610	102.095874504566	102
5	616	103.095874504566	103
5	622	104.095874504566	104
5	628	105.095874504566	105
5	634	106.095874504566	106
5	640	107.095874504566	107
5	646	108.095874504566	108
5	652	109.095874504566	109
5	658	110.095874504566	110
5	664	111.095874504566	111
5	670	112.095874504566	112
5	676	113.095874504566	113
5	682	114.095874504566	114
5	688	115.095874504566	115
5	694	116.095874504566	116
5	700	117.095874504566	117
5	706	118.095874504566	118
5	712	119.095874504566	119
5	718	120.095874504566	120
5	724	121.095874504566	121
5	730	122.095874504566	122
5	736	123.095874504566	123
5	742	124.095874504566	124
5	748	125.095874504566	125
5	754	126.095874504566	126
5	760	127.095874504566	127
5	766	128.095874504566	128
5	772	129.095874504566	129
5	778	130.095874504566	130
5	784	131.095874504566	131
5	790	132.095874504566	132
5	796	133.095874504566	133
5	802	134.095874504566	134
5	808	135.095874504566	135
5	814	136.095874504566	136
5	820	137.095874504566	137
5	826	138.095874504566	138
5	832	139.095874504566	139
5	838	140.095874504566	140
5	844	141.095874504566	141
5	850	142.095874504566	142
5	856	143.095874504566	143
5	862	144.095874504566	144
5	868	145.095874504566	145
5	874	146.095874504566	146
5	880	147.095874504566	147
5	886	148.095874504566	148
5	892	149.095874504566	149
5	898	150.095874504566	150
5	904	151.095874504566	151
5	910	152.095874504566	152
5	916	153.095874504566	153
5	922	154.095874504566	154
5	928	155.095874504566	155
5	934	156.095874504566	156
5	940	157.095874504566	157
5	946	158.095874504566	158
5	952	159.095874504566	159
5	958	160.095874504566	160
5	964	161.095874504566	161
5	970	162.095874504566	162
5	976	163.095874504566	163
5	982	164.095874504566	164
5	988	165.095874504566	165
5	994	166.095874504566	166
5	1000	167.095874504566	167
5	1006	168.095874504566	168
5	1012	169.095874504566	169
5	1018	170.095874504566	170
5	1024	171.095874504566	171
5	1030	172.095874504566	172
5	1036	173.095874504566	173
5	1042	174.095874504566	174
5	1048	175.095874504566	175
5	1054	176.095874504566	176
5	1060	177.095874504566	177
5	1066	178.095874504566	178
5	1072	179.095874504566	179
5	1078	180.095874504566	180
5	1084	181.095874504566	181
5	1090	182.095874504566	182
5	1096	183.095874504566	183
5	1102	184.095874504566	184
5	1108	185.095874504566	185
5	1114	186.095874504566	186
5	1120	187.095874504566	187
5	1126	188.095874504566	188
5	1132	189.095874504566	189
5	1138	190.095874504566	190
5	1144	191.095874504566	191
5	1150	192.095874504566	192
5	1156	193.095874504566	193
5	1162	194.095874504566	194
5	1168	195.095874504566	195
5	1174	196.095874504566	196
5	1180	197.095874504566	197
5	1186	198.095874504566	198
5	1192	199.095874504566	199
6	4	1.095874504566	1
6	10	2.095874504566	2
6	16	3.095874504566	3
6	22	4.095874504566	4
6	28	5.095874504566	5
6	34	6.095874504566	6
6	40	7.095874504566	7
6	46	8.095874504566	8
6	52	9.095874504566	9
6	58	10.095874504566	10
6	64	11.095874504566	11
6	70	12.095874504566	12
6	76	13.095874504566	13
6	82	14.095874504566	14
6	88	15.095874504566	15
6	94	16.095874504566	16
6	100	17.095874504566	17
6	106	18.095874504566	18
6	112	19.095874504566	19
6	118	20.095874504566	20
6	124	21.095874504566	21
6	130	22.095874504566	22
6	136	23.095874504566	23
6	142	24.095874504566	24
6	148	25.095874504566	25
6	154	26.095874504566	26
6	160	27.095874504566	27
6	166	28.095874504566	28
6	172	29.095874504566	29
6	178	30.095874504566	30
6	184	31.095874504566	31
6	190	32.095874504566	32
6	196	33.095874504566	33
6	202	34.095874504566	34
6	208	35.095874504566	35
6	214	36.095874504566	36
6	220	37.095874504566	37
6	226	38.095874504566	38
6	232	39.095874504566	39
6	238	40.095874504566	40
6	244	41.095874504566	41
6	250	42.095874504566	42
6	256	43.095874504566	43
6	262	44.095874504566	44
6	268	45.095874504566	45
6	274	46.095874504566	46
6	280	47.095874504566	47
6	286	48.095874504566	48
6	292	49.095874504566	49
6	298	50.095874504566	50
6	304	51.095874504566	51
6	310	52.095874504566	52
6	316	53.095874504566	53
6	322	54.095874504566	54
6	328	55.095874504566	55
6	334	56.095874504566	56
6	340	57.095874504566	57
6	346	58.095874504566	58
6	352	59.095874504566	59
6	358	60.095874504566	60
6	364	61.095874504566	61
6	370	62.095874504566	62
6	376	63.095874504566	63
6	382	64.095874504566	64
6	388	65.095874504566	65
6	394	66.095874504566	66
6	400	67.095874504566	67
6	406	68.095874504566	68
6	412	69.095874504566	69
6	418	70.095874504566	70
6	424	71.095874504566	71
6	430	72.095874504566	72
6	436	73.095874504566	73
6	442	74.095874504566	74
6	448	75.095874504566	75
6	454	76.095874504566	76
6	460	77.095874504566	77
6	466	78.095874504566	78
6	472	79.095874504566	79
6	478	80.095874504566	80
6	484	81.095874504566	81
6	490	82.095874504566	82
6	496	83.095874504566	83
6	502	84.095874504566	84
6	508	85.095874504566	85
6	514	86.095874504566	86
6	520	87.095874504566	87
6	526	88.095874504566	88
6	532	89.095874504566	89
6	538	90.095874504566	90
6	544	91.095874504566	91
6	550	92.095874504566	92
6	556	93.095874504566	93
6	562	94.095874504566	94
6	568	95.095874504566	95
6	574	96.095874504566	96
6	580	97.095874504566	97
6	586	98.095874504566	98
6	592	99.095874504566	99
6	598	100.095874504566	100
6	604	101.095874504566	101
6	610	102.095874504566	102
6	616	103.095874504566	103
6	622	104.095874504566	104
6	628	105.095874504566	105
6	634	106.095874504566	106
6	640	107.095874504566	107
6	646	108.095874504566	108
6	652	109.095874504566	109
6	658	110.095874504566	110
6	664	111.095874504566	111
6	670	112.095874504566	112
6	676	113.095874504566	113
6	682	114.095874504566	114
6	688	115.095874504566	115
6	694	116.095874504566	116
6	700	117.095874504566	117
6	706	118.095874504566	118
6	712	119.095874504566	119
6	718	120.095874504566	120
6	724	121.095874504566	121
6	730	122.095874504566	122
6	736	123.095874504566	123
6	742	124.095874504566	124
6	748	125.095874504566	125
6	754	126.095874504566	126
6	760	127.095874504566	127
6	766	128.095874504566	128
6	772	129.095874504566	129
6	778	130.095874504566	130
6	784	131.095874504566	131
6	790	132.095874504566	132
6	796	133.095874504566	133
6	802	134.095874504566	134
6	808	135.095874504566	135
6	814	136.095874504566	136
6	820	137.095874504566	137
6	826	138.095874504566	138
6	832	139.095874504566	139
6	838	140.095874504566	140
6	844	141.095874504566	141
6	850	142.095874504566	142
6	856	143.095874504566	143
6	862	144.095874504566	144
6	868	145.095874504566	145
6	874	146.095874504566	146
6	880	147.095874504566	147
6	886	148.095874504566	148
6	892	149.095874504566	149
6	898	150.095874504566	150
6	904	151.095874504566	151
6	910	152.095874504566	152
6	916	153.095874504566	153
6	922	154.095874504566	154
6	928	155.095874504566	155
6	934	156.095874504566	156
6	940	157.095874504566	157
6	946	158.095874504566	158
6	952	159.095874504566	159
6	958	160.095874504566	160
6	964	161.095874504566	161
6	970	162.095874504566	162
6	976	163.095874504566	163
6	982	164.095874504566	164
6	988	165.095874504566	165
6	994	166.095874504566	166
6	1000	167.095874504566	167
6	1006	168.095874504566	168
6	1012	169.095874504566	169
6	1018	170.095874504566	170
6	1024	171.095874504566	171
6	1030	172.095874504566	172
6	1036	173.095874504566	173
6	1042	174.095874504566	174
6	1048	175.095874504566	175
6	1054	176.095874504566	176
6	1060	177.095874504566	177
6	1066	178.095874504566	178
6	1072	179.095874504566	179
6	1078	180.095874504566	180
6	1084	181.095874504566	181
6	1090	182.095874504566	182
6	1096	183.095874504566	183
6	1102	184.095874504566	184
6	1108	185.095874504566	185
6	1114	186.095874504566	186
6	1120	187.095874504566	187
6	1126	188.095874504566	188
6	1132	189.095874504566	189
6	1138	190.095874504566	190
6	1144	191.095874504566	191
6	1150	192.095874504566	192
6	1156	193.095874504566	193
6	1162	194.095874504566	194
6	1168	195.095874504566	195
6	1174	196.095874504566	196
6	1180	197.095874504566	197
6	1186	198.095874504566	198
6	1192	199.095874504566	199
7	5	1.195874504566	1
7	11	2.195874504566	2
7	17	3.195874504566	3
7	23	4.195874504566	4
7	29	5.195874504566	5
7	35	6.195874504566	6
7	41	7.195874504566	7
7	47	8.195874504566	8
7	53	9.195874504566	9
7	59	10.195874504566	10
7	65	11.195874504566	11
7	71	12.195874504566	12
7	77	13.195874504566	13
7	83	14.195874504566	14
7	89	15.195874504566	15
7	95	16.195874504566	16
7	101	17.195874504566	17
7	107	18.195874504566	18
7	113	19.195874504566	19
7	119	20.195874504566	20
7	125	21.195874504566	21
7	131	22.195874504566	22
7	137	23.195874504566	23
7	143	24.195874504566	24
7	149	25.195874504566	25
7	155	26.195874504566	26
7	161	27.195874504566	27
7	167	28.195874504566	28
7	173	29.195874504566	29
7	179	30.195874504566	30
7	185	31.195874504566	31
7	191	32.195874504566	32
7	197	33.195874504566	33
7	203	34.195874504566	34
7	209	35.195874504566	35
7	215	36.195874504566	36
7	221	37.195874504566	37
7	227	38.195874504566	38
7	233	39.195874504566	39
7	239	40.195874504566	40
7	245	41.195874504566	41
7	251	42.195874504566	42
7	257	43.195874504566	43
7	263	44.195874504566	44
7	269	45.195874504566	45
7	275	46.195874504566	46
7	281	47.195874504566	47
7	287	48.195874504566	48
7	293	49.195874504566	49
7	299	50.195874504566	50
7	305	51.195874504566	51
7	311	52.195874504566	52
7	317	53.195874504566	53
7	323	54.195874504566	54
7	329	55.195874504566	55
7	335	56.195874504566	56
7	341	57.195874504566	57
7	347	58.195874504566	58
7	353	59.195874504566	59
7	359	60.195874504566	60
7	365	61.195874504566	61
7	371	62.195874504566	62
7	377	63.195874504566	63
7	383	64.195874504566	64
7	389	65.195874504566	65
7	395	66.195874504566	66
7	401	67.195874504566	67
7	407	68.195874504566	68
7	413	69.195874504566	69
7	419	70.195874504566	70
7	425	71.195874504566	71
7	431	72.195874504566	72
7	437	73.195874504566	73
7	443	74.195874504566	74
7	449	75.195874504566	75
7	455	76.195874504566	76
7	461	77.195874504566	77
7	467	78.195874504566	78
7	473	79.195874504566	79
7	479	80.195874504566	80
7	485	81.195874504566	81
7	491	82.195874504566	82
7	497	83.195874504566	83
7	503	84.195874504566	84
7	509	85.195874504566	85
7	515	86.195874504566	86
7	521	87.195874504566	87
7	527	88.195874504566	88
7	533	89.195874504566	89
7	539	90.195874504566	90
7	545	91.195874504566	91
7	551	92.195874504566	92
7	557	93.195874504566	93
7	563	94.195874504566	94
7	569	95.195874504566	95
7	575	96.195874504566	96
7	581	97.195874504566	97
7	587	98.195874504566	98
7	593	99.195874504566	99
7	599	100.195874504566	100
7	605	101.195874504566	101
7	611	102.195874504566	102
7	617	103.195874504566	103
7	623	104.195874504566	104
7	629	105.195874504566	105
7	635	106.195874504566	106
7	641	107.195874504566	107
7	647	108.195874504566	108
7	653	109.195874504566	109
7	659	110.195874504566	110
7	665	111.195874504566	111
7	671	112.195874504566	112
7	677	113.195874504566	113
7	683	114.195874504566	114
7	689	115.195874504566	115
7	695	116.195874504566	116
7	701	117.195874504566	117
7	707	118.195874504566	118
7	713	119.195874504566	119
7	719	120.195874504566	120
7	725	121.195874504566	121
7	731	122.195874504566	122
7	737	123.195874504566	123
7	743	124.195874504566	124
7	749	125.195874504566	125
7	755	126.195874504566	126
7	761	127.195874504566	127
7	767	128.195874504566	128
7	773	129.195874504566	129
7	779	130.195874504566	130
7	785	131.195874504566	131
7	791	132.195874504566	132
7	797	133.195874504566	133
7	803	134.195874504566	134
7	809	135.195874504566	135
7	815	136.195874504566	136
7	821	137.195874504566	137
7	827	138.195874504566	138
7	833	139.195874504566	139
7	839	140.195874504566	140
7	845	141.195874504566	141
7	851	142.195874504566	142
7	857	143.195874504566	143
7	863	144.195874504566	144
7	869	145.195874504566	145
7	875	146.195874504566	146
7	881	147.195874504566	147
7	887	148.195874504566	148
7	893	149.195874504566	149
7	899	150.195874504566	150
7	905	151.195874504566	151
7	911	152.195874504566	152
7	917	153.195874504566	153
7	923	154.195874504566	154
7	929	155.195874504566	155
7	935	156.195874504566	156
7	941	157.195874504566	157
7	947	158.195874504566	158
7	953	159.195874504566	159
7	959	160.195874504566	160
7	965	161.195874504566	161
7	971	162.195874504566	162
7	977	163.195874504566	163
7	983	164.195874504566	164
7	989	165.195874504566	165
7	995	166.195874504566	166
7	1001	167.195874504566	167
7	1007	168.195874504566	168
7	1013	169.195874504566	169
7	1019	170.195874504566	170
7	1025	171.195874504566	171
7	1031	172.195874504566	172
7	1037	173.195874504566	173
7	1043	174.195874504566	174
7	1049	175.195874504566	175
7	1055	176.195874504566	176
7	1061	177.195874504566	177
7	1067	178.195874504566	178
7	1073	179.195874504566	179
7	1079	180.195874504566	180
7	1085	181.195874504566	181
7	1091	182.195874504566	182
7	1097	183.195874504566	183
7	1103	184.195874504566	184
7	1109	185.195874504566	185
7	1115	186.195874504566	186
7	1121	187.195874504566	187
7	1127	188.195874504566	188
7	1133	189.195874504566	189
7	1139	190.195874504566	190
7	1145	191.195874504566	191
7	1151	192.195874504566	192
7	1157	193.195874504566	193
7	1163	194.195874504566	194
7	1169	195.195874504566	195
7	1175	196.195874504566	196
7	1181	197.195874504566	197
7	1187	198.195874504566	198
7	1193	199.195874504566	199
8	5	1.195874504566	1
8	11	2.195874504566	2
8	17	3.195874504566	3
8	23	4.195874504566	4
8	29	5.195874504566	5
8	35	6.195874504566	6
8	41	7.195874504566	7
8	47	8.195874504566	8
8	53	9.195874504566	9
8	59	10.195874504566	10
8	65	11.195874504566	11
8	71	12.195874504566	12
8	77	13.195874504566	13
8	83	14.195874504566	14
8	89	15.195874504566	15
8	95	16.195874504566	16
8	101	17.195874504566	17
8	107	18.195874504566	18
8	113	19.195874504566	19
8	119	20.195874504566	20
8	125	21.195874504566	21
8	131	22.195874504566	22
8	137	23.195874504566	23
8	143	24.195874504566	24
8	149	25.195874504566	25
8	155	26.195874504566	26
8	161	27.195874504566	27
8	167	28.195874504566	28
8	173	29.195874504566	29
8	179	30.195874504566	30
8	185	31.195874504566	31
8	191	32.195874504566	32
8	197	33.195874504566	33
8	203	34.195874504566	34
8	209	35.195874504566	35
8	215	36.195874504566	36
8	221	37.195874504566	37
8	227	38.195874504566	38
8	233	39.195874504566	39
8	239	40.195874504566	40
8	245	41.195874504566	41
8	251	42.195874504566	42
8	257	43.195874504566	43
8	263	44.195874504566	44
8	269	45.195874504566	45
8	275	46.195874504566	46
8	281	47.195874504566	47
8	287	48.195874504566	48
8	293	49.195874504566	49
8	299	50.195874504566	50
8	305	51.195874504566	51
8	311	52.195874504566	52
8	317	53.195874504566	53
8	323	54.195874504566	54
8	329	55.195874504566	55
8	335	56.195874504566	56
8	341	57.195874504566	57
8	347	58.195874504566	58
8	353	59.195874504566	59
8	359	60.195874504566	60
8	365	61.195874504566	61
8	371	62.195874504566	62
8	377	63.195874504566	63
8	383	64.195874504566	64
8	389	65.195874504566	65
8	395	66.195874504566	66
8	401	67.195874504566	67
8	407	68.195874504566	68
8	413	69.195874504566	69
8	419	70.195874504566	70
8	425	71.195874504566	71
8	431	72.195874504566	72
8	437	73.195874504566	73
8	443	74.195874504566	74
8	449	75.195874504566	75
8	455	76.195874504566	76
8	461	77.195874504566	77
8	467	78.195874504566	78
8	473	79.195874504566	79
8	479	80.195874504566	80
8	485	81.195874504566	81
8	491	82.195874504566	82
8	497	83.195874504566	83
8	503	84.195874504566	84
8	509	85.195874504566	85
8	515	86.195874504566	86
8	521	87.195874504566	87
8	527	88.195874504566	88
8	533	89.195874504566	89
8	539	90.195874504566	90
8	545	91.195874504566	91
8	551	92.195874504566	92
8	557	93.195874504566	93
8	563	94.195874504566	94
8	569	95.195874504566	95
8	575	96.195874504566	96
8	581	97.195874504566	97
8	587	98.195874504566	98
8	593	99.195874504566	99
8	599	100.195874504566	100
8	605	101.195874504566	101
8	611	102.195874504566	102
8	617	103.195874504566	103
8	623	104.195874504566	104
8	629	105.195874504566	105
8	635	106.195874504566	106
8	641	107.195874504566	107
8	647	108.195874504566	108
8	653	109.195874504566	109
8	659	110.195874504566	110
8	665	111.195874504566	111
8	671	112.195874504566	112
8	677	113.195874504566	113
8	683	114.195874504566	114
8	689	115.195874504566	115
8	695	116.195874504566	116
8	701	117.195874504566	117
8	707	118.195874504566	118
8	713	119.195874504566	119
8	719	120.195874504566	120
8	725	121.195874504566	121
8	731	122.195874504566	122
8	737	123.195874504566	123
8	743	124.195874504566	124
8	749	125.195874504566	125
8	755	126.195874504566	126
8	761	127.195874504566	127
8	767	128.195874504566	128
8	773	129.195874504566	129
8	779	130.195874504566	130
8	785	131.195874504566	131
8	791	132.195874504566	132
8	797	133.195874504566	133
8	803	134.195874504566	134
8	809	135.195874504566	135
8	815	136.195874504566	136
8	821	137.195874504566	137
8	827	138.195874504566	138
8	833	139.195874504566	139
8	839	140.195874504566	140
8	845	141.195874504566	141
8	851	142.195874504566	142
8	857	143.195874504566	143
8	863	144.195874504566	144
8	869	145.195874504566	145
8	875	146.195874504566	146
8	881	147.195874504566	147
8	887	148.195874504566	148
8	893	149.195874504566	149
8	899	150.195874504566	150
8	905	151.195874504566	151
8	911	152.195874504566	152
8	917	153.195874504566	153
8	923	154.195874504566	154
8	929	155.195874504566	155
8	935	156.195874504566	156
8	941	157.195874504566	157
8	947	158.195874504566	158
8	953	159.195874504566	159
8	959	160.195874504566	160
8	965	161.195874504566	161
8	971	162.195874504566	162
8	977	163.195874504566	163
8	983	164.195874504566	164
8	989	165.195874504566	165
8	995	166.195874504566	166
8	1001	167.195874504566	167
8	1007	168.195874504566	168
8	1013	169.195874504566	169
8	1019	170.195874504566	170
8	1025	171.195874504566	171
8	1031	172.195874504566	172
8	1037	173.195874504566	173
8	1043	174.195874504566	174
8	1049	175.195874504566	175
8	1055	176.195874504566	176
8	1061	177.195874504566	177
8	1067	178.195874504566	178
8	1073	179.195874504566	179
8	1079	180.195874504566	180
8	1085	181.195874504566	181
8	1091	182.195874504566	182
8	1097	183.195874504566	183
8	1103	184.195874504566	184
8	1109	185.195874504566	185
8	1115	186.195874504566	186
8	1121	187.195874504566	187
8	1127	188.195874504566	188
8	1133	189.195874504566	189
8	1139	190.195874504566	190
8	1145	191.195874504566	191
8	1151	192.195874504566	192
8	1157	193.195874504566	193
8	1163	194.195874504566	194
8	1169	195.195874504566	195
8	1175	196.195874504566	196
8	1181	197.195874504566	197
8	1187	198.195874504566	198
8	1193	199.195874504566	199
9	6	1.295874504566	1
9	12	2.295874504566	2
9	18	3.295874504566	3
9	24	4.295874504566	4
9	30	5.295874504566	5
9	36	6.295874504566	6
9	42	7.295874504566	7
9	48	8.295874504566	8
9	54	9.295874504566	9
9	60	10.295874504566	10
9	66	11.295874504566	11
9	72	12.295874504566	12
9	78	13.295874504566	13
9	84	14.295874504566	14
9	90	15.295874504566	15
9	96	16.295874504566	16
9	102	17.295874504566	17
9	108	18.295874504566	18
9	114	19.295874504566	19
9	120	20.295874504566	20
9	126	21.295874504566	21
9	132	22.295874504566	22
9	138	23.295874504566	23
9	144	24.295874504566	24
9	150	25.295874504566	25
9	156	26.295874504566	26
9	162	27.295874504566	27
9	168	28.295874504566	28
9	174	29.295874504566	29
9	180	30.295874504566	30
9	186	31.295874504566	31
9	192	32.295874504566	32
9	198	33.295874504566	33
9	204	34.295874504566	34
9	210	35.295874504566	35
9	216	36.295874504566	36
9	222	37.295874504566	37
9	228	38.295874504566	38
9	234	39.295874504566	39
9	240	40.295874504566	40
9	246	41.295874504566	41
9	252	42.295874504566	42
9	258	43.295874504566	43
9	264	44.295874504566	44
9	270	45.295874504566	45
9	276	46.295874504566	46
9	282	47.295874504566	47
9	288	48.295874504566	48
9	294	49.295874504566	49
9	300	50.295874504566	50
9	306	51.295874504566	51
9	312	52.295874504566	52
9	318	53.295874504566	53
9	324	54.295874504566	54
9	330	55.295874504566	55
9	336	56.295874504566	56
9	342	57.295874504566	57
9	348	58.295874504566	58
9	354	59.295874504566	59
9	360	60.295874504566	60
9	366	61.295874504566	61
9	372	62.295874504566	62
9	378	63.295874504566	63
9	384	64.295874504566	64
9	390	65.295874504566	65
9	396	66.295874504566	66
9	402	67.295874504566	67
9	408	68.295874504566	68
9	414	69.295874504566	69
9	420	70.295874504566	70
9	426	71.295874504566	71
9	432	72.295874504566	72
9	438	73.295874504566	73
9	444	74.295874504566	74
9	450	75.295874504566	75
9	456	76.295874504566	76
9	462	77.295874504566	77
9	468	78.295874504566	78
9	474	79.295874504566	79
9	480	80.295874504566	80
9	486	81.295874504566	81
9	492	82.295874504566	82
9	498	83.295874504566	83
9	504	84.295874504566	84
9	510	85.295874504566	85
9	516	86.295874504566	86
9	522	87.295874504566	87
9	528	88.295874504566	88
9	534	89.295874504566	89
9	540	90.295874504566	90
9	546	91.295874504566	91
9	552	92.295874504566	92
9	558	93.295874504566	93
9	564	94.295874504566	94
9	570	95.295874504566	95
9	576	96.295874504566	96
9	582	97.295874504566	97
9	588	98.295874504566	98
9	594	99.295874504566	99
9	600	100.295874504566	100
9	606	101.295874504566	101
9	612	102.295874504566	102
9	618	103.295874504566	103
9	624	104.295874504566	104
9	630	105.295874504566	105
9	636	106.295874504566	106
9	642	107.295874504566	107
9	648	108.295874504566	108
9	654	109.295874504566	109
9	660	110.295874504566	110
9	666	111.295874504566	111
9	672	112.295874504566	112
9	678	113.295874504566	113
9	684	114.295874504566	114
9	690	115.295874504566	115
9	696	116.295874504566	116
9	702	117.295874504566	117
9	708	118.295874504566	118
9	714	119.295874504566	119
9	720	120.295874504566	120
9	726	121.295874504566	121
9	732	122.295874504566	122
9	738	123.295874504566	123
9	744	124.295874504566	124
9	750	125.295874504566	125
9	756	126.295874504566	126
9	762	127.295874504566	127
9	768	128.295874504566	128
9	774	129.295874504566	129
9	780	130.295874504566	130
9	786	131.295874504566	131
9	792	132.295874504566	132
9	798	133.295874504566	133
9	804	134.295874504566	134
9	810	135.295874504566	135
9	816	136.295874504566	136
9	822	137.295874504566	137
9	828	138.295874504566	138
9	834	139.295874504566	139
9	840	140.295874504566	140
9	846	141.295874504566	141
9	852	142.295874504566	142
9	858	143.295874504566	143
9	864	144.295874504566	144
9	870	145.295874504566	145
9	876	146.295874504566	146
9	882	147.295874504566	147
9	888	148.295874504566	148
9	894	149.295874504566	149
9	900	150.295874504566	150
9	906	151.295874504566	151
9	912	152.295874504566	152
9	918	153.295874504566	153
9	924	154.295874504566	154
9	930	155.295874504566	155
9	936	156.295874504566	156
9	942	157.295874504566	157
9	948	158.295874504566	158
9	954	159.295874504566	159
9	960	160.295874504566	160
9	966	161.295874504566	161
9	972	162.295874504566	162
9	978	163.295874504566	163
9	984	164.295874504566	164
9	990	165.295874504566	165
9	996	166.295874504566	166
9	1002	167.295874504566	167
9	1008	168.295874504566	168
9	1014	169.295874504566	169
9	1020	170.295874504566	170
9	1026	171.295874504566	171
9	1032	172.295874504566	172
9	1038	173.295874504566	173
9	1044	174.295874504566	174
9	1050	175.295874504566	175
9	1056	176.295874504566	176
9	1062	177.295874504566	177
9	1068	178.295874504566	178
9	1074	179.295874504566	179
9	1080	180.295874504566	180
9	1086	181.295874504566	181
9	1092	182.295874504566	182
9	1098	183.295874504566	183
9	1104	184.295874504566	184
9	1110	185.295874504566	185
9	1116	186.295874504566	186
9	1122	187.295874504566	187
9	1128	188.295874504566	188
9	1134	189.295874504566	189
9	1140	190.295874504566	190
9	1146	191.295874504566	191
9	1152	192.295874504566	192
9	1158	193.295874504566	193
9	1164	194.295874504566	194
9	1170	195.295874504566	195
9	1176	196.295874504566	196
9	1182	197.295874504566	197
9	1188	198.295874504566	198
9	1194	199.295874504566	199

