version 2
run General-0-20230901-06:42:35-6303
attr configname General
attr datetime 20230901-06:42:35
attr experiment General
attr inifile omnetpp.ini
attr iterationvars ""
attr iterationvarsf ""
attr measurement ""
attr network Tictoc1
attr processid 6303
attr repetition 0
attr replication #0
attr resultdir results
attr runnumber 0
attr seedset 0
param Tictoc.tic.delayTime exponential(2s)
param Tictoc.toc.delayTime exponential(0.1s)
param Tictoc.*.lossProbability 0.2

vector 0 Tictoc1.tic transmissionSignal:vector ETV
attr source transmissionSignal
attr title "tx_t, vector"
vector 1 Tictoc1.toc receptionSignal:vector ETV
attr source receptionSignal
attr title "rx_t, vector"
vector 2 Tictoc1.toc transmissionSignal:vector ETV
attr source transmissionSignal
attr title "tx_t, vector"
vector 3 Tictoc1.tic receptionSignal:vector ETV
attr source receptionSignal
attr title "rx_t, vector"
0	1	0.548813502304	0
0	5	3.874406578109	1
0	9	7.166728891256	2
0	13	10.445449005254	3
0	17	13.700553853921	4
0	21	17.004369783987	5
0	23	18.004369783987	5
0	25	19.004369783987	5
0	27	20.004369783987	5
0	31	23.210208250896	6
0	35	26.44204386498	7
0	37	27.44204386498	7
0	39	28.44204386498	7
0	43	31.809264985012	8
0	47	35.074653241734	9
0	51	38.324540442636	10
0	55	41.705377369063	11
0	57	42.705377369063	11
0	59	43.705377369063	11
0	61	44.705377369063	11
0	65	47.907419927903	12
0	67	48.907419927903	12
0	71	52.422436920771	13
0	75	55.637560006137	14
0	79	59.041649227728	15
0	83	62.305820144996	16
0	87	65.667220352485	17
0	89	66.667220352485	17
0	93	70.018873949884	18
0	97	73.231461390828	19
0	101	76.533604578263	20
0	105	79.749077546313	21
0	109	83.238519594112	22
0	113	86.512302323288	23
0	115	87.512302323288	23
0	117	88.512302323288	23
0	119	89.512302323288	23
0	121	90.512302323288	23
0	123	91.512302323288	23
0	127	94.84583134175	24
0	129	95.84583134175	24
0	131	96.84583134175	24
1	2	0.648813502304	1
1	6	3.974406578109	2
1	10	7.266728891256	3
1	14	10.545449005254	4
1	18	13.800553853921	5
1	28	20.104369783987	6
1	32	23.310208250896	7
1	40	28.54204386498	8
1	44	31.909264985012	9
1	48	35.174653241734	10
1	52	38.424540442636	11
1	62	44.805377369063	12
1	68	49.007419927903	13
1	72	52.522436920771	14
1	76	55.737560006137	15
1	80	59.141649227728	16
1	84	62.405820144996	17
1	90	66.767220352485	18
1	94	70.118873949884	19
1	98	73.331461390828	20
1	102	76.633604578263	21
1	106	79.849077546313	22
1	110	83.338519594112	23
1	124	91.612302323288	24
1	132	96.94583134175	25
2	3	0.774406578109	0
2	7	4.066728891256	0
2	11	7.345449005254	0
2	15	10.600553853921	0
2	19	13.904369783987	0
2	29	20.110208250896	0
2	33	23.34204386498	0
2	41	28.709264985012	0
2	45	31.974653241734	0
2	49	35.224540442636	0
2	53	38.605377369063	0
2	63	44.807419927903	0
2	69	49.322436920771	0
2	73	52.537560006137	0
2	77	55.941649227728	0
2	81	59.205820144996	0
2	85	62.567220352485	0
2	91	66.918873949884	0
2	95	70.131461390828	0
2	99	73.433604578263	0
2	103	76.649077546313	0
2	107	80.138519594112	0
2	111	83.412302323288	0
2	125	91.74583134175	0
2	133	96.960359144479	0
3	4	0.874406578109	1
3	8	4.166728891256	2
3	12	7.445449005254	3
3	16	10.700553853921	4
3	20	14.004369783987	5
3	30	20.210208250896	6
3	34	23.44204386498	7
3	42	28.809264985012	8
3	46	32.074653241734	9
3	50	35.324540442636	10
3	54	38.705377369063	11
3	64	44.907419927903	12
3	70	49.422436920771	13
3	74	52.637560006137	14
3	78	56.041649227728	15
3	82	59.305820144996	16
3	86	62.667220352485	17
3	92	67.018873949884	18
3	96	70.231461390828	19
3	100	73.533604578263	20
3	104	76.749077546313	21
3	108	80.238519594112	22
3	112	83.512302323288	23
3	126	91.84583134175	24
3	134	97.060359144479	25

