version 2
run General-0-20230907-12:57:57-1070
attr configname General
attr datetime 20230907-12:57:57
attr experiment General
attr inifile omnetpp.ini
attr iterationvars ""
attr iterationvarsf ""
attr measurement ""
attr network Tictoc1
attr processid 1070
attr repetition 0
attr replication #0
attr resultdir results
attr runnumber 0
attr seedset 0
param Tictoc.tic.delayTime exponential(1s)
param Tictoc.toc.delayTime exponential(0.1s)

vector 0 Tictoc1.tic transmissionSignal:vector ETV
attr source transmissionSignal
attr title "tx_t, vector"
vector 1 Tictoc1.toc receptionSignal:vector ETV
attr source receptionSignal
attr title "rx_t, vector"
vector 2 Tictoc1.toc transmissionSignal:vector ETV
attr source transmissionSignal
attr title "tx_t, vector"
vector 3 Tictoc1.tic receptionSignal:vector ETV
attr source receptionSignal
attr title "rx_t, vector"
0	1	0	1
0	5	1.279587450457	2
0	9	2.569443489305	3
0	13	3.89503656511	4
0	17	5.280996986317	5
0	21	6.573319299464	6
0	25	7.968473833052	7
0	29	9.24719394705	8
0	33	10.63509035247	9
0	37	11.890195201137	10
0	41	13.187895843776	11
0	45	14.491711773842	12
0	49	15.740224590214	13
0	53	16.997776509902	14
0	57	18.233092423816	15
0	61	19.65544486602	16
0	65	20.861283332929	17
0	69	22.392774560922	18
0	73	23.624610175006	19
0	77	24.872970385501	20
0	81	26.137915020326	21
0	85	27.494804632088	22
0	89	28.86202575212	23
0	93	30.137293163451	24
0	97	31.402681420173	25
0	101	32.686624705463	26
0	105	33.936511906365	27
0	109	35.39633731495	28
0	113	36.777174241377	29
0	117	37.984542776924	30
0	121	39.225700576548	31
0	125	40.43481667916	32
0	129	41.739277929991	33
0	133	42.941320488831	34
0	137	44.187245302557	35
0	141	45.565994068901	36
0	145	47.081011061769	37
0	149	48.431589487633	38
0	153	49.646712572999	39
0	157	51.050743998793	40
0	161	52.454833220384	41
0	165	54.039355407298	42
0	169	55.303526324566	43
0	173	56.664050280272	44
0	177	58.025450487761	45
0	181	59.287343433724	46
0	185	60.560839875843	47
0	189	61.912493473242	48
0	193	63.226087367413	49
0	197	64.438674808357	50
0	201	65.766197578579	51
0	205	67.068340766014	52
0	209	68.355572885518	53
0	213	69.571045853568	54
0	217	70.848129319415	55
0	221	72.337571367214	56
0	225	73.679707835223	57
0	229	74.953490564399	58
0	233	76.164685180462	59
0	237	77.418241752485	60
0	241	78.682411222688	61
0	245	79.913139257903	62
0	249	81.133759586106	63
0	253	82.482585068681	64
0	257	83.816114087143	65
0	261	85.077022329461	66
0	265	86.301427178535	67
0	269	87.585460649096	68
0	273	88.799988451825	69
0	277	90.001885308745	70
0	281	91.241062389813	71
0	285	92.53720048372	72
0	289	93.753414132665	73
0	293	95.048113800382	74
0	297	96.273257993589	75
0	301	97.569212791326	76
0	305	98.818068496257	77
0	309	100.305859998385	78
0	313	101.738751335806	79
0	317	103.053265231276	80
0	321	104.313039838958	81
0	325	105.557591688463	82
0	329	106.852541146813	83
0	333	108.109994387487	84
0	337	109.542629493656	85
0	341	110.862240273602	86
0	345	112.07269639618	87
0	349	113.278907925227	88
0	353	114.828929293672	89
0	357	116.138820540427	90
0	361	117.444703953576	91
0	365	118.755763698145	92
0	369	119.974506304747	93
0	373	121.198126975355	94
0	377	122.442467378217	95
0	381	123.65627024706	96
0	385	124.995174516039	97
0	389	126.233070712467	98
0	393	127.526676868444	99
0	397	128.771887074466	100
0	401	130.011198330196	101
0	405	131.295641109549	102
0	409	132.49955942519	103
0	413	133.757291856271	104
0	417	135.057878956788	105
0	421	136.703328641406	106
0	425	138.222623305611	107
0	429	139.433386816427	108
0	433	140.739169457762	109
0	437	141.96259960964	110
0	441	143.263401534182	111
0	445	144.480992888725	112
0	449	146.217002923749	113
0	453	147.522877195258	114
0	457	148.810068780621	115
0	461	150.039276833948	116
0	465	151.292783301656	117
0	469	152.555577459755	118
0	473	153.819955559915	119
0	477	155.047983260763	120
0	481	156.34566966817	121
0	485	157.562982413785	122
0	489	158.804232536777	123
0	493	160.015928077756	124
0	497	161.328244907909	125
0	501	162.635052127624	126
0	505	163.873207711961	127
0	509	165.088078938886	128
0	513	166.438742472213	129
0	517	167.660630531864	130
0	521	169.159349521049	131
0	525	170.405350916823	132
0	529	171.713977854911	133
0	533	173.086011020683	134
0	537	174.287377478526	135
0	541	175.497591966678	136
0	545	176.795102160094	137
0	549	178.177084052022	138
0	553	179.489065488597	139
0	557	180.699168966128	140
0	561	182.256527803362	141
0	565	183.83143094932	142
0	569	185.241963079399	143
0	573	186.505196739039	144
0	577	187.776455098372	145
0	581	189.352647826822	146
0	585	190.558380519464	147
0	589	191.851228369154	148
0	593	193.111223057818	149
0	597	194.445647585033	150
0	601	195.647666597848	151
0	605	196.851664227754	152
0	609	198.109952066641	153
0	613	199.343193090737	154
0	617	200.932350103022	155
0	621	202.145155779553	156
0	625	203.389697725745	157
0	629	204.624815334683	158
0	633	205.890379963119	159
0	637	207.103018826762	160
0	641	208.419706179417	161
0	645	209.657976274303	162
0	649	211.070399994003	163
0	653	212.323888431579	164
0	657	213.774279609888	165
0	661	214.980909350036	166
0	665	216.205348894844	167
0	669	217.523267847551	168
0	673	218.806552199158	169
0	677	220.090161952355	170
0	681	221.490486004606	171
0	685	222.721327488616	172
0	689	223.992452282338	173
0	693	225.266528177383	174
0	697	226.715086413081	175
0	701	227.924951443923	176
0	705	229.378981894719	177
0	709	230.664771458826	178
0	713	231.87344850706	179
0	717	233.338374099928	180
0	721	234.570908141481	181
0	725	235.809264162891	182
0	729	237.010204237957	183
0	733	238.320288828966	184
0	737	239.705021594066	185
0	741	240.919154665422	186
0	745	242.22333273084	187
0	749	243.549326111851	188
0	753	244.933454359	189
0	757	246.167619775703	190
0	761	247.398371548079	191
0	765	248.618606591936	192
0	769	249.869326604262	193
0	773	251.157639508458	194
0	777	252.438119248438	195
0	781	253.640150494318	196
0	785	254.858175719516	197
0	789	256.234749826757	198
0	793	257.480922916361	199
0	797	258.68139357041	200
0	801	259.897227721033	201
0	805	261.21049113523	202
0	809	262.494799438445	203
0	813	263.72627160453	204
0	817	265.047922469874	205
0	821	266.380798257249	206
0	825	267.614832931073	207
0	829	269.142347248844	208
0	833	270.399137664192	209
0	837	271.627739761443	210
0	841	272.968842202372	211
0	845	274.254681499155	212
0	849	275.505115879814	213
0	853	276.794774966893	214
0	857	278.221148324479	215
0	861	279.506070405635	216
0	865	280.807936278637	217
0	869	282.033178277926	218
0	873	283.455328967773	219
0	877	284.960557133461	220
0	881	286.274517929814	221
0	885	287.533780332559	222
0	889	288.793418271992	223
0	893	290.180764259978	224
0	897	291.765064918302	225
0	901	293.085288775027	226
0	905	294.297641439763	227
0	909	295.53294345309	228
0	913	296.878625308946	229
0	917	298.246717529401	230
0	921	299.499789779063	231
0	925	300.750291653838	232
0	929	302.062819855522	233
0	933	303.475769795129	234
0	937	304.704510842736	235
0	941	305.991564425369	236
0	945	307.22913830961	237
0	949	308.642621354608	238
0	953	310.179058399913	239
0	957	311.496996693277	240
0	961	312.785782834321	241
0	965	314.114973761201	242
0	969	315.422757249615	243
0	973	316.692337195705	244
0	977	317.968523972835	245
0	981	319.481070808601	246
0	985	320.707276532769	247
0	989	322.010556233834	248
0	993	323.26078731366	249
0	997	324.515926912673	250
0	1001	325.812372269222	251
0	1005	327.105612557263	252
0	1009	328.370023028095	253
0	1013	329.57196100623	254
0	1017	330.835473777793	255
0	1021	332.07136649938	256
0	1025	333.397270851106	257
0	1029	334.705202870972	258
0	1033	335.93916934423	259
0	1037	337.1734293067	260
0	1041	338.421792875359	261
0	1045	339.718030380936	262
0	1049	341.05632830159	263
0	1053	342.312324408597	264
0	1057	343.723069169092	265
0	1061	344.937626566937	266
0	1065	346.148481276786	267
0	1069	347.383903690011	268
0	1073	348.593595965469	269
0	1077	349.877984812728	270
0	1081	351.121687614105	271
0	1085	352.411060521936	272
0	1089	353.691315720512	273
0	1093	354.976723694076	274
0	1097	356.180144035912	275
0	1101	357.48604497445	276
0	1105	359.033298522378	277
0	1109	360.338883483244	278
0	1113	361.577596492459	279
0	1117	362.834057542571	280
0	1121	364.059065692069	281
0	1125	365.485929091338	282
0	1129	366.701158453863	283
0	1133	367.946975742259	284
0	1137	369.157207803744	285
0	1141	370.414453958887	286
0	1145	372.028234934938	287
0	1149	373.450726400661	288
0	1153	374.680882991983	289
0	1157	376.044972749776	290
0	1161	377.321980435731	291
0	1165	378.643682385265	292
0	1169	379.903089735097	293
0	1173	381.11365099946	294
0	1177	382.32413918302	295
0	1181	383.776067396028	296
0	1185	385.019501961622	297
0	1189	386.344762714113	298
0	1193	387.608108975885	299
0	1197	389.484648027879	300
0	1201	390.868621306387	301
0	1205	392.084808315058	302
0	1209	393.519826044033	303
0	1213	394.922416925743	304
0	1217	396.126245217031	305
0	1221	397.343977774546	306
0	1225	398.614969567268	307
0	1229	399.91056620966	308
0	1233	401.128820069848	309
0	1237	402.342038440809	310
0	1241	403.69302078637	311
0	1245	405.081413675029	312
0	1249	406.481612324582	313
0	1253	407.846284234715	314
0	1257	409.099284522529	315
0	1261	410.383472618702	316
0	1265	411.598551719721	317
0	1269	412.85083872273	318
0	1273	414.054217401285	319
0	1277	415.261384939716	320
0	1281	416.866369623596	321
0	1285	418.185913480224	322
0	1289	419.432640736865	323
0	1293	420.69307064405	324
0	1297	421.947556356864	325
0	1301	423.275589777245	326
0	1305	424.480781032463	327
0	1309	425.882058306084	328
0	1313	427.127549490563	329
0	1317	428.698545549753	330
0	1321	429.900222326352	331
0	1325	431.293880050101	332
0	1329	432.520112981018	333
0	1333	433.72129130421	334
0	1337	435.066070712409	335
0	1341	436.310695994461	336
0	1345	437.799157169671	337
0	1349	439.130087006073	338
0	1353	440.468716141275	339
0	1357	441.687545638797	340
0	1361	442.929006893063	341
0	1365	444.202620003062	342
0	1369	445.469866054745	343
0	1373	446.675453060034	344
0	1377	447.916850952301	345
0	1381	449.139164873111	346
0	1385	450.358947823857	347
0	1389	451.560817370899	348
0	1393	452.779569266019	349
0	1397	454.13741053823	350
0	1401	455.399670272628	351
0	1405	456.625020843142	352
0	1409	458.032623949186	353
0	1413	459.274989659322	354
0	1417	460.763444088163	355
0	1421	462.226665974418	356
0	1425	463.52037984619	357
0	1429	464.842259526524	358
0	1433	466.133055929256	359
0	1437	467.336291609721	360
0	1441	468.689374732348	361
0	1445	469.907370466503	362
0	1449	471.176690443457	363
0	1453	472.473838659266	364
0	1457	473.679006949846	365
0	1461	474.965099313514	366
0	1465	476.285196404168	367
0	1469	477.512363211202	368
0	1473	479.200276500001	369
0	1477	480.672411325592	370
0	1481	481.903508106089	371
0	1485	483.198691076843	372
0	1489	484.512350726369	373
0	1493	485.789058691826	374
0	1497	487.188775888575	375
0	1501	488.477913746266	376
0	1505	489.816881452644	377
0	1509	491.14785998978	378
0	1513	492.681653423165	379
0	1517	493.919042072755	380
0	1521	495.199840078095	381
0	1525	496.450626590364	382
0	1529	497.674501877649	383
0	1533	498.898054334991	384
0	1537	500.123214196302	385
0	1541	501.34381740115	386
0	1545	502.56850332803	387
0	1549	504.05741088722	388
0	1553	505.341708764761	389
0	1557	506.676243508084	390
0	1561	507.936411406736	391
0	1565	509.2038358637	392
0	1569	510.755283731754	393
0	1573	511.981085008148	394
0	1577	513.295198798434	395
0	1581	514.524549563626	396
0	1585	515.733464992626	397
0	1589	516.939443088918	398
0	1593	518.14525032513	399
0	1597	519.402240081661	400
0	1601	520.66915145403	401
0	1605	521.906518433469	402
0	1609	523.319385442922	403
0	1613	524.638571253287	404
0	1617	526.21324071467	405
0	1621	527.460682343703	406
0	1625	528.75682630086	407
0	1629	529.976623074393	408
0	1633	531.254820646481	409
0	1637	532.457319481812	410
0	1641	533.8501554955	411
0	1645	535.057117262607	412
0	1649	536.393310435038	413
0	1653	537.707064285592	414
0	1657	538.972187358784	415
0	1661	540.232645480618	416
0	1665	541.545681035209	417
0	1669	542.822593015319	418
0	1673	544.11599904858	419
0	1677	545.542983050158	420
0	1681	546.868403377167	421
0	1685	548.532368629804	422
0	1689	549.795761631743	423
0	1693	551.020210733947	424
0	1697	552.281094025321	425
0	1701	553.589884468682	426
0	1705	555.026776285766	427
0	1709	556.257336775947	428
0	1713	557.472096379236	429
0	1717	558.674183101097	430
0	1721	559.900218242252	431
0	1725	561.242256587811	432
0	1729	562.655612916558	433
0	1733	563.894181685963	434
0	1737	565.328966062106	435
0	1741	566.577329900855	436
0	1745	567.881114908404	437
0	1749	569.169865101252	438
0	1753	570.409122404071	439
0	1757	571.786936737754	440
0	1761	573.060273505071	441
0	1765	574.359423934361	442
0	1769	575.559429469551	443
0	1773	576.965511593639	444
0	1777	578.202887923021	445
0	1781	579.434845388508	446
0	1785	580.690262471413	447
0	1789	582.050234415597	448
0	1793	583.466810783684	449
0	1797	584.687345560558	450
0	1801	586.001251325625	451
0	1805	587.506569792584	452
0	1809	588.767474253855	453
0	1813	590.083785582198	454
0	1817	591.349835890173	455
0	1821	592.57410773954	456
0	1825	593.929574033321	457
0	1829	595.424022061063	458
0	1833	596.650086074001	459
0	1837	597.981336873298	460
0	1841	599.393611538692	461
0	1845	600.622906684541	462
0	1849	601.860549619693	463
0	1853	603.084541971637	464
0	1857	604.600251525779	465
0	1861	605.873274292303	466
0	1865	607.137093152862	467
0	1869	608.339692927381	468
0	1873	609.664028005176	469
0	1877	610.887280507014	470
0	1881	612.103967971137	471
0	1885	613.359251808202	472
0	1889	614.690349045018	473
0	1893	615.937216692616	474
0	1897	617.241137256274	475
0	1901	618.50342018725	476
0	1905	619.727612151727	477
0	1909	620.960133753525	478
0	1913	622.180769552885	479
0	1917	623.469148118488	480
0	1921	624.833955735804	481
0	1925	626.233359655932	482
0	1929	627.570827651312	483
0	1933	628.783330910304	484
0	1937	630.095676960259	485
0	1941	631.368529344532	486
0	1945	632.600949255881	487
0	1949	633.815113459361	488
0	1953	635.034339603445	489
0	1957	636.360520870794	490
0	1961	637.682420805312	491
0	1965	638.932848798637	492
0	1969	640.195052490545	493
0	1973	641.47839031461	494
0	1977	642.861916654904	495
0	1981	644.082162531274	496
0	1985	645.305086963795	497
0	1989	646.520734540833	498
0	1993	647.738761970791	499
0	1997	649.005716029877	500
0	2001	650.219050092204	501
0	2005	651.462995631253	502
0	2009	652.791038066651	503
0	2013	654.273101661493	504
0	2017	655.476194290649	505
0	2021	656.821149768292	506
0	2025	658.158584069734	507
0	2029	659.496680379301	508
0	2033	660.706397147138	509
0	2037	662.140446343204	510
0	2041	663.364966152468	511
0	2045	664.573677010794	512
0	2049	665.912008657409	513
0	2053	667.192347833676	514
0	2057	668.523910459506	515
0	2061	669.811731967378	516
0	2065	671.016400741742	517
0	2069	672.543250381824	518
0	2073	673.76671596675	519
0	2077	675.001267925121	520
0	2081	676.235083396605	521
0	2085	677.462636190309	522
0	2089	678.775728038228	523
0	2093	679.986296755638	524
0	2097	681.192808042117	525
0	2101	682.394464651559	526
0	2105	683.675578753782	527
0	2109	685.140834605334	528
0	2113	686.341762907772	529
0	2117	687.652603883193	530
0	2121	689.031602843641	531
0	2125	690.385385715089	532
0	2129	692.000982824645	533
0	2133	693.234073812763	534
0	2137	694.555642860099	535
0	2141	695.843930914595	536
0	2145	697.063975134104	537
0	2149	698.270584335173	538
0	2153	699.542408983184	539
0	2157	700.808889758139	540
0	2161	702.095746331286	541
0	2165	703.675148709595	542
0	2169	705.030049877511	543
0	2173	706.439205534773	544
0	2177	707.7324667203	545
0	2181	708.973739706973	546
0	2185	710.198381289194	547
0	2189	711.724273386912	548
0	2193	712.985001315774	549
0	2197	714.211359027058	550
0	2201	715.622447904496	551
0	2205	717.120667972043	552
0	2209	718.388448172249	553
0	2213	719.872112191587	554
0	2217	721.197835891144	555
0	2221	722.558381767451	556
0	2225	723.824966016115	557
0	2229	725.124512380452	558
0	2233	726.447800426755	559
0	2237	727.855176573065	560
0	2241	729.12412002685	561
0	2245	730.358795357229	562
0	2249	731.744938521527	563
0	2253	733.133948691337	564
0	2257	734.355558312996	565
0	2261	735.651759505655	566
0	2265	737.00018375392	567
0	2269	738.201516278403	568
0	2273	739.767482011479	569
0	2277	741.010135592683	570
0	2281	742.408410483143	571
0	2285	743.624443892592	572
0	2289	744.976050785575	573
0	2293	746.576845751062	574
0	2297	748.197031693687	575
0	2301	749.462111427923	576
0	2305	750.802178997619	577
0	2309	752.070973345465	578
0	2313	753.271378977597	579
0	2317	754.573397686392	580
0	2321	755.804797476198	581
0	2325	757.050776607976	582
0	2329	758.303623330806	583
0	2333	759.518345834537	584
0	2337	760.774246601536	585
0	2341	762.14690993951	586
0	2345	763.382269597036	587
0	2349	764.603322925856	588
0	2353	765.854594390119	589
0	2357	767.126198921918	590
0	2361	768.339056945646	591
0	2365	769.564458083481	592
0	2369	771.159221410237	593
0	2373	772.369518246609	594
0	2377	773.621626128717	595
0	2381	775.019815162828	596
0	2385	776.304028793112	597
0	2389	777.86492289361	598
0	2393	779.107022223415	599
0	2397	780.631018520105	600
0	2401	781.98654795614	601
0	2405	783.423586714201	602
0	2409	784.676582872128	603
0	2413	786.025325847562	604
0	2417	787.269840781503	605
0	2421	788.510359069737	606
0	2425	789.761358153122	607
0	2429	790.969816102298	608
0	2433	792.205745492811	609
0	2437	793.458042258177	610
0	2441	794.807305474596	611
0	2445	796.03373252101	612
0	2449	797.494389701242	613
0	2453	798.708602252381	614
0	2457	799.947952493493	615
0	2461	801.153443230748	616
0	2465	802.658929208649	617
0	2469	803.988243994529	618
0	2473	805.189648653653	619
0	2477	806.390797978674	620
0	2481	807.667040347095	621
0	2485	809.014260762894	622
0	2489	810.250584984784	623
0	2493	811.46647830275	624
0	2497	812.880916849201	625
0	2501	814.089203076493	626
0	2505	815.318054347528	627
0	2509	816.527441802256	628
0	2513	817.840579679016	629
0	2517	819.152068421207	630
0	2521	820.518364999274	631
0	2525	821.746517401521	632
0	2529	823.003106855684	633
0	2533	824.257672627161	634
0	2537	825.597159536287	635
0	2541	826.878661369377	636
0	2545	828.255623351698	637
0	2549	829.652629108257	638
0	2553	830.900276966517	639
0	2557	832.230121530077	640
0	2561	833.440274938471	641
0	2565	834.671790941343	642
0	2569	835.901381128668	643
0	2573	837.11547791711	644
0	2577	838.405110837612	645
0	2581	839.610807490859	646
0	2585	840.875524961263	647
0	2589	842.111421093101	648
0	2593	843.3783513803	649
0	2597	844.608748536223	650
0	2601	845.870092445182	651
0	2605	847.130998890714	652
0	2609	848.405357209892	653
0	2613	849.720331348667	654
0	2617	850.978673725771	655
0	2621	852.297623350904	656
0	2625	853.689107576668	657
0	2629	854.922447910506	658
0	2633	856.17926495888	659
0	2637	857.427056757631	660
0	2641	858.802428222133	661
0	2645	860.022413775925	662
0	2649	861.293614582487	663
0	2653	862.64898913269	664
0	2657	863.858022857098	665
0	2661	865.063875646993	666
0	2665	866.371768337843	667
0	2669	867.691169674903	668
0	2673	868.914311772099	669
0	2677	870.265133295262	670
0	2681	871.653045138683	671
0	2685	873.003286418054	672
0	2689	874.317655480113	673
0	2693	875.547687988142	674
0	2697	876.767334176732	675
0	2701	878.014144822055	676
0	2705	879.221386733066	677
0	2709	880.509962797669	678
0	2713	881.710936338603	679
0	2717	882.942794723391	680
0	2721	884.365403122335	681
0	2725	885.611742125089	682
0	2729	886.826067427227	683
0	2733	888.048014243316	684
0	2737	889.399060403438	685
0	2741	890.660652331816	686
0	2745	892.119897192694	687
0	2749	893.324460997644	688
0	2753	894.650050346078	689
0	2757	896.010892130987	690
0	2761	897.278387228352	691
0	2765	898.486395113946	692
0	2769	899.749788326595	693
0	2773	901.022942860508	694
0	2777	902.437252830551	695
0	2781	903.673897959734	696
0	2785	904.940921147392	697
0	2789	906.227087896572	698
0	2793	907.480628331681	699
0	2797	909.001109214642	700
0	2801	910.220238819232	701
0	2805	911.523963328642	702
0	2809	912.788454177759	703
0	2813	913.992054460734	704
0	2817	915.345139302628	705
0	2821	916.60142182281	706
0	2825	917.882711658929	707
0	2829	919.154050087209	708
0	2833	920.371469603246	709
0	2837	921.648294937433	710
0	2841	922.863823495983	711
0	2845	924.178203033895	712
0	2849	925.483031944391	713
0	2853	926.71554903144	714
0	2857	927.99303326939	715
0	2861	929.206828592583	716
0	2865	930.446234349778	717
0	2869	931.696103583065	718
0	2873	932.912004784745	719
0	2877	934.4252877337	720
0	2881	935.642707605358	721
0	2885	936.863426123583	722
0	2889	938.077284805725	723
0	2893	939.511608798734	724
0	2897	940.798102609677	725
0	2901	942.076586311636	726
0	2905	943.286266058867	727
0	2909	944.547314343367	728
0	2913	945.988715986418	729
0	2917	947.40245815546	730
0	2921	948.611119854905	731
0	2925	949.872480275879	732
0	2929	951.233613475791	733
0	2933	952.562409673299	734
0	2937	953.972073300651	735
0	2941	955.222993549338	736
0	2945	956.432805501601	737
0	2949	957.867192465681	738
0	2953	959.122758356997	739
0	2957	960.439884726492	740
0	2961	961.703982081018	741
0	2965	963.024253459401	742
0	2969	964.311050457603	743
0	2973	965.550758552605	744
0	2977	966.876722669667	745
0	2981	968.218101002621	746
0	2985	969.420845212664	747
0	2989	970.721922128974	748
0	2993	972.053374338782	749
0	2997	973.280820690982	750
0	3001	974.62647671214	751
0	3005	975.843976216962	752
0	3009	977.044957660602	753
0	3013	978.404113272881	754
0	3017	979.640971566842	755
0	3021	981.160797064519	756
0	3025	982.38730637466	757
0	3029	983.648580919146	758
0	3033	984.918583482758	759
0	3037	986.207983623026	760
0	3041	987.715291145305	761
0	3045	989.11028883649	762
0	3049	990.391890692886	763
0	3053	991.652996449015	764
0	3057	992.863251638315	765
0	3061	994.366645895555	766
0	3065	995.663846984661	767
0	3069	996.949590494922	768
0	3073	998.348384440406	769
0	3077	999.720291371585	770
0	3081	1000.937445234322	771
0	3085	1002.376963213261	772
0	3089	1004.065313112296	773
0	3093	1005.434336607772	774
0	3097	1006.643219846037	775
0	3101	1007.860585502358	776
0	3105	1009.070507655006	777
0	3109	1010.369635605582	778
0	3113	1011.67004072297	779
0	3117	1012.920862668375	780
0	3121	1014.419040634108	781
0	3125	1015.625517203387	782
0	3129	1017.101577648955	783
0	3133	1018.356748010214	784
0	3137	1019.616056169947	785
0	3141	1020.845989008189	786
0	3145	1022.176072750935	787
0	3149	1023.565145666378	788
0	3153	1024.900717517763	789
0	3157	1026.104104703287	790
0	3161	1027.340775218666	791
0	3165	1028.860151405934	792
0	3169	1030.072908763314	793
0	3173	1031.316816461873	794
0	3177	1032.575493342541	795
0	3181	1033.819608823614	796
0	3185	1035.069329752248	797
0	3189	1036.270976080646	798
0	3193	1037.546872558071	799
0	3197	1038.767357784786	800
0	3201	1040.154021831804	801
0	3205	1041.405314530987	802
0	3209	1042.682160788726	803
0	3213	1044.147079614949	804
0	3217	1045.461107502641	805
0	3221	1046.671600777374	806
0	3225	1047.96555097596	807
0	3229	1049.456142936326	808
0	3233	1050.66651001999	809
0	3237	1052.070139438717	810
0	3241	1053.27979356662	811
0	3245	1054.540336944784	812
0	3249	1055.746096236466	813
0	3253	1056.985652796506	814
0	3257	1058.194703543521	815
0	3261	1059.421197037285	816
0	3265	1060.648269476359	817
0	3269	1061.943581730186	818
0	3273	1063.326535945772	819
0	3277	1064.529899337864	820
0	3281	1065.803791339858	821
0	3285	1067.005364252235	822
0	3289	1068.277328742004	823
0	3293	1069.533329579337	824
0	3297	1070.83826379593	825
0	3301	1072.045313990766	826
0	3305	1073.323969899955	827
0	3309	1074.552997241467	828
0	3313	1075.756297639973	829
0	3317	1076.981292721638	830
0	3321	1078.268078908627	831
0	3325	1079.4972735158	832
0	3329	1080.844715738278	833
0	3333	1082.058763309974	834
0	3337	1083.305960118751	835
0	3341	1084.507171043257	836
0	3345	1085.774706630274	837
0	3349	1086.986978131006	838
0	3353	1088.586734478678	839
0	3357	1089.883093748307	840
0	3361	1091.111151340925	841
0	3365	1092.677107552771	842
0	3369	1093.923999685498	843
0	3373	1095.588027685093	844
0	3377	1096.792701175267	845
0	3381	1098.045304254843	846
0	3385	1099.282420426923	847
0	3389	1100.500208102709	848
0	3393	1101.878301570198	849
0	3397	1103.180123328079	850
0	3401	1104.544641670786	851
0	3405	1105.812036015208	852
0	3409	1107.114207849949	853
0	3413	1108.768990235135	854
0	3417	1110.014893027884	855
0	3421	1111.221646443572	856
0	3425	1112.459152637884	857
0	3429	1113.812046524955	858
0	3433	1115.173912631597	859
0	3437	1116.407936353558	860
0	3441	1117.615241519273	861
0	3445	1118.842872038566	862
0	3449	1120.157938297859	863
0	3453	1121.466558628975	864
0	3457	1122.714479898423	865
0	3461	1123.942724569619	866
0	3465	1125.243217900525	867
0	3469	1126.552837156626	868
0	3473	1128.014401249868	869
0	3477	1129.287239007171	870
0	3481	1130.679612864238	871
0	3485	1131.934793076402	872
0	3489	1133.203644465206	873
0	3493	1134.484542434719	874
0	3497	1135.740375113645	875
0	3501	1136.974209725515	876
0	3505	1138.347121689283	877
0	3509	1139.669734910506	878
0	3513	1141.003762506704	879
0	3517	1142.257352386238	880
0	3521	1143.516618128032	881
0	3525	1144.761332118292	882
0	3529	1146.308396626346	883
0	3533	1147.684805365565	884
0	3537	1148.929929245414	885
0	3541	1150.388911859964	886
0	3545	1151.639584181354	887
0	3549	1152.84429410846	888
0	3553	1154.178496082578	889
0	3557	1155.404974309912	890
0	3561	1156.664591499052	891
0	3565	1157.90744225947	892
0	3569	1159.384356707754	893
0	3573	1160.75307853663	894
0	3577	1161.982815889421	895
0	3581	1163.606117469054	896
0	3585	1164.854205291484	897
0	3589	1166.401490862074	898
0	3593	1167.720939856425	899
0	3597	1169.156273333232	900
0	3601	1170.583644049901	901
0	3605	1171.818820788444	902
0	3609	1173.031724638762	903
0	3613	1174.714696663559	904
0	3617	1175.942343935213	905
0	3621	1177.171034844751	906
0	3625	1178.396946070339	907
0	3629	1179.608140524453	908
0	3633	1180.875378814657	909
0	3637	1182.376875641876	910
0	3641	1183.798997060196	911
0	3645	1185.025578715098	912
0	3649	1186.269912154698	913
0	3653	1187.586955727699	914
0	3657	1188.835607641675	915
0	3661	1190.041620478588	916
0	3665	1191.490183587023	917
0	3669	1192.821379895131	918
0	3673	1194.033463034757	919
0	3677	1195.446933274211	920
0	3681	1196.746663166628	921
0	3685	1197.978468621147	922
0	3689	1199.192718915712	923
0	3693	1200.440370497809	924
0	3697	1201.687250066973	925
0	3701	1202.934137882536	926
0	3705	1204.173354011498	927
0	3709	1205.511499919483	928
0	3713	1206.825479460149	929
0	3717	1208.052635039317	930
0	3721	1209.411370762286	931
0	3725	1210.630227234711	932
0	3729	1211.900331785644	933
0	3733	1213.159986777332	934
0	3737	1214.395118905486	935
0	3741	1215.631426789504	936
0	3745	1217.048549377639	937
0	3749	1218.431302004421	938
0	3753	1219.674668489958	939
0	3757	1220.901815486601	940
0	3761	1222.23590565906	941
0	3765	1223.505699413943	942
0	3769	1224.786748728661	943
0	3773	1226.272491263443	944
0	3777	1227.494995512829	945
0	3781	1228.795507077686	946
0	3785	1230.075029297817	947
0	3789	1231.476987748139	948
0	3793	1232.750310282007	949
0	3797	1234.232001455003	950
0	3801	1235.47489263858	951
0	3805	1236.813828489275	952
0	3809	1238.016321298848	953
0	3813	1239.336577033319	954
0	3817	1240.552691291202	955
0	3821	1242.096785695961	956
0	3825	1243.310925007234	957
0	3829	1245.029437949537	958
0	3833	1246.35250983464	959
0	3837	1247.612625299278	960
0	3841	1248.936093286883	961
0	3845	1250.143443924625	962
0	3849	1251.43805409875	963
0	3853	1252.672697431499	964
0	3857	1253.984143254671	965
0	3861	1255.200672555903	966
0	3865	1256.460005612729	967
0	3869	1257.714045882489	968
0	3873	1259.033144027829	969
0	3877	1260.247218543372	970
0	3881	1261.494752510336	971
0	3885	1262.787416370366	972
0	3889	1263.997955983357	973
0	3893	1265.246213504873	974
0	3897	1266.768745113245	975
0	3901	1268.194492792321	976
0	3905	1269.402011973237	977
0	3909	1270.945574312485	978
0	3913	1272.14752324178	979
0	3917	1273.42668415124	980
0	3921	1275.015775160281	981
0	3925	1276.247909190568	982
0	3929	1277.463982194625	983
0	3933	1278.753687496036	984
0	3937	1279.98362279633	985
0	3941	1281.41069380707	986
0	3945	1282.634968350806	987
0	3949	1283.887179481247	988
0	3953	1285.17390868313	989
0	3957	1286.454222360322	990
0	3961	1288.026163191412	991
0	3965	1289.257860929401	992
0	3969	1290.489745034242	993
0	3973	1291.750523510654	994
0	3977	1293.301429865754	995
0	3981	1294.55279842708	996
0	3985	1295.755381231523	997
0	3989	1296.983938123573	998
0	3993	1298.402902795029	999
0	3997	1299.673397727167	1000
0	4001	1300.996706599889	1001
0	4005	1302.233868175372	1002
0	4009	1303.466409847088	1003
0	4013	1304.713096281444	1004
0	4017	1306.138345568451	1005
0	4021	1307.412783394591	1006
0	4025	1308.615471456542	1007
0	4029	1309.954339183929	1008
0	4033	1311.252592018201	1009
0	4037	1312.493164652588	1010
0	4041	1313.733144179836	1011
0	4045	1315.191055492915	1012
0	4049	1316.732547983158	1013
0	4053	1318.130829241185	1014
0	4057	1319.349290828476	1015
0	4061	1320.554282388719	1016
0	4065	1321.986034994976	1017
0	4069	1323.215290055095	1018
0	4073	1324.455328208241	1019
0	4077	1325.714411730281	1020
0	4081	1327.134444662325	1021
0	4085	1328.345496249985	1022
0	4089	1329.617332833506	1023
0	4093	1330.860176936385	1024
0	4097	1332.131640355123	1025
0	4101	1333.466385237492	1026
0	4105	1334.715296078554	1027
0	4109	1336.029400411979	1028
0	4113	1337.304921593755	1029
0	4117	1338.602309452903	1030
0	4121	1340.091821214605	1031
0	4125	1341.415791022667	1032
0	4129	1342.839155007777	1033
0	4133	1344.062086724941	1034
0	4137	1345.375132444772	1035
0	4141	1346.616941610666	1036
0	4145	1347.918836928774	1037
0	4149	1349.231612972131	1038
0	4153	1350.511100255738	1039
0	4157	1351.922490937203	1040
0	4161	1353.154330238809	1041
0	4165	1354.432785908501	1042
0	4169	1355.648834319237	1043
0	4173	1356.882060381595	1044
0	4177	1358.276065202583	1045
0	4181	1359.479135379884	1046
0	4185	1360.779936733932	1047
0	4189	1362.10384038467	1048
0	4193	1363.339456962826	1049
0	4197	1364.540248497477	1050
0	4201	1365.801907806329	1051
0	4205	1367.048537508973	1052
0	4209	1368.251020829748	1053
0	4213	1369.526637454527	1054
0	4217	1370.808296723412	1055
0	4221	1372.263544372767	1056
0	4225	1373.508353169605	1057
0	4229	1374.717728708366	1058
0	4233	1375.987586808974	1059
0	4237	1377.239664695461	1060
0	4241	1378.456344271273	1061
0	4245	1379.65880563568	1062
0	4249	1380.914232483021	1063
0	4253	1382.156180415368	1064
0	4257	1383.592809441753	1065
0	4261	1384.890156696118	1066
0	4265	1386.091011497983	1067
0	4269	1387.323732536116	1068
0	4273	1388.870671919994	1069
0	4277	1390.094212506644	1070
0	4281	1391.411619520323	1071
0	4285	1392.623915777012	1072
0	4289	1393.834387004355	1073
0	4293	1395.120458475106	1074
0	4297	1396.354675944268	1075
0	4301	1397.673508860297	1076
0	4305	1398.95096053909	1077
0	4309	1400.26242163939	1078
0	4313	1401.591210663301	1079
0	4317	1403.088531497249	1080
0	4321	1404.337775634887	1081
0	4325	1405.538046322345	1082
0	4329	1406.763804808979	1083
0	4333	1408.067989255461	1084
0	4337	1409.328660496385	1085
0	4341	1410.620387676076	1086
0	4345	1412.17823784866	1087
0	4349	1413.467090719893	1088
0	4353	1414.846558031293	1089
0	4357	1416.375622914319	1090
0	4361	1417.82188734126	1091
0	4365	1419.023588903633	1092
0	4369	1420.333635756681	1093
0	4373	1421.652867334103	1094
0	4377	1422.910968199649	1095
0	4381	1424.278996439657	1096
0	4385	1425.594543912532	1097
0	4389	1426.865839560445	1098
0	4393	1428.170422089724	1099
0	4397	1429.411063376399	1100
0	4401	1430.614016557515	1101
0	4405	1431.970482212585	1102
0	4409	1433.42247108197	1103
0	4413	1434.632701260071	1104
0	4417	1435.910889702381	1105
0	4421	1437.169235719612	1106
0	4425	1438.841875239298	1107
0	4429	1440.115262236	1108
0	4433	1441.363567538426	1109
0	4437	1442.681970312061	1110
0	4441	1444.046305635582	1111
0	4445	1445.255834083869	1112
0	4449	1446.517639321583	1113
0	4453	1447.743485246455	1114
0	4457	1449.118830058283	1115
0	4461	1450.371644457355	1116
0	4465	1451.649105830991	1117
0	4469	1452.946735033288	1118
0	4473	1454.365006422217	1119
0	4477	1455.783008466933	1120
0	4481	1457.195123912618	1121
0	4485	1458.491573888794	1122
0	4489	1459.731368728259	1123
0	4493	1460.945693598638	1124
0	4497	1462.197516383448	1125
0	4501	1463.791662251911	1126
0	4505	1465.070330563457	1127
0	4509	1466.475735811843	1128
0	4513	1467.772940708691	1129
0	4517	1469.042801065386	1130
0	4521	1470.29050084048	1131
0	4525	1471.746052612146	1132
0	4529	1473.024169491145	1133
0	4533	1474.302122994028	1134
0	4537	1475.515010858632	1135
0	4541	1476.971804121502	1136
0	4545	1478.285965673854	1137
0	4549	1479.663101005786	1138
0	4553	1480.896945119068	1139
0	4557	1482.442046132004	1140
0	4561	1483.646438855417	1141
0	4565	1485.098740601552	1142
0	4569	1486.311081548703	1143
0	4573	1487.514751455731	1144
0	4577	1488.726004450369	1145
0	4581	1489.945214007984	1146
0	4585	1491.18326510284	1147
0	4589	1492.432552979677	1148
0	4593	1493.660860223262	1149
0	4597	1495.164813382275	1150
0	4601	1496.447545974635	1151
0	4605	1497.683217599902	1152
0	4609	1499.120041205202	1153
0	4613	1500.337532231212	1154
0	4617	1501.624307745506	1155
0	4621	1503.041731036219	1156
0	4625	1504.332845617026	1157
0	4629	1505.591975895583	1158
0	4633	1506.81916247944	1159
0	4637	1508.257624013763	1160
0	4641	1509.544585549847	1161
0	4645	1510.762048329495	1162
0	4649	1511.977815534778	1163
0	4653	1513.286025723226	1164
0	4657	1514.526917476151	1165
0	4661	1515.784946434949	1166
0	4665	1517.08317025339	1167
0	4669	1518.291127268899	1168
0	4673	1519.53596019956	1169
0	4677	1520.855185423768	1170
0	4681	1522.297090563184	1171
0	4685	1523.525512537537	1172
0	4689	1524.936290573377	1173
0	4693	1526.140332731142	1174
0	4697	1527.397276342529	1175
0	4701	1528.603457957394	1176
0	4705	1529.876358629532	1177
0	4709	1531.082660973958	1178
0	4713	1532.347033454543	1179
0	4717	1533.785340281862	1180
0	4721	1535.005718820083	1181
0	4725	1536.340381548937	1182
0	4729	1537.597432147745	1183
0	4733	1539.025771551187	1184
0	4737	1540.246541879808	1185
0	4741	1541.558193737164	1186
0	4745	1542.883793297041	1187
0	4749	1544.159070262245	1188
0	4753	1545.433095481386	1189
0	4757	1546.669400196825	1190
0	4761	1547.908049615029	1191
0	4765	1549.727640626901	1192
0	4769	1550.927951062582	1193
0	4773	1552.172922399377	1194
0	4777	1553.463879469864	1195
0	4781	1554.727489815301	1196
0	4785	1556.03220904085	1197
0	4789	1557.279729984729	1198
0	4793	1558.48025029801	1199
0	4797	1560.069114770287	1200
0	4801	1561.620512652582	1201
0	4805	1562.839708442777	1202
0	4809	1564.148733001423	1203
0	4813	1565.388480909415	1204
0	4817	1566.62317379773	1205
0	4821	1567.937226245226	1206
0	4825	1569.159586151059	1207
0	4829	1570.366115510624	1208
0	4833	1571.826082835159	1209
0	4837	1573.119540876794	1210
0	4841	1574.356538794769	1211
0	4845	1575.621479867448	1212
0	4849	1576.873100212942	1213
0	4853	1578.106507721248	1214
0	4857	1579.406763962081	1215
0	4861	1580.633999084716	1216
0	4865	1582.055321807869	1217
0	4869	1583.327582031623	1218
0	4873	1584.584252227608	1219
0	4877	1585.830127357873	1220
0	4881	1587.293540497467	1221
0	4885	1588.554516714753	1222
0	4889	1589.844185298412	1223
0	4893	1591.085355356199	1224
0	4897	1592.34188088433	1225
0	4901	1593.894196018453	1226
0	4905	1595.184036255097	1227
0	4909	1596.398358582245	1228
0	4913	1597.642132527856	1229
0	4917	1598.852314092054	1230
0	4921	1600.159322341017	1231
0	4925	1601.401389108257	1232
0	4929	1602.707033207675	1233
0	4933	1603.996443796488	1234
0	4937	1605.368882985035	1235
0	4941	1606.676522030977	1236
0	4945	1607.928066785978	1237
0	4949	1609.178693182686	1238
0	4953	1610.382522062463	1239
0	4957	1612.305868907743	1240
0	4961	1613.923413268166	1241
0	4965	1615.166783215206	1242
0	4969	1616.426229816876	1243
0	4973	1617.754030029793	1244
0	4977	1619.231505491951	1245
0	4981	1620.533001387788	1246
0	4985	1621.844488073195	1247
0	4989	1623.212181546494	1248
0	4993	1624.44320115882	1249
0	4997	1626.017116006624	1250
0	5001	1627.300142071301	1251
0	5005	1628.720682151681	1252
0	5009	1630.235181906951	1253
0	5013	1631.579812664167	1254
0	5017	1632.791858490944	1255
0	5021	1634.111673629728	1256
0	5025	1635.343450563866	1257
0	5029	1636.584322329289	1258
0	5033	1637.7928844087	1259
0	5037	1639.008864386743	1260
0	5041	1640.353796573691	1261
0	5045	1641.560264934206	1262
0	5049	1642.762457672275	1263
0	5053	1643.990151894808	1264
0	5057	1645.204915083131	1265
0	5061	1646.461528038301	1266
0	5065	1647.69172353865	1267
0	5069	1648.965537212905	1268
0	5073	1650.370395528565	1269
0	5077	1651.718712869369	1270
0	5081	1652.938486046163	1271
0	5085	1654.45727446339	1272
0	5089	1655.714063232702	1273
0	5093	1656.926542541928	1274
0	5097	1658.165864270627	1275
0	5101	1659.377181603866	1276
0	5105	1660.664745483675	1277
0	5109	1661.953830863864	1278
0	5113	1663.429452171612	1279
0	5117	1664.76625757375	1280
0	5121	1666.248909970806	1281
0	5125	1667.637396432226	1282
0	5129	1668.842790127868	1283
0	5133	1670.31741531489	1284
0	5137	1671.608101625621	1285
0	5141	1673.218095054888	1286
0	5145	1674.640473336463	1287
0	5149	1675.891522852733	1288
0	5153	1677.243359767573	1289
0	5157	1678.49121742468	1290
0	5161	1679.714984011791	1291
0	5165	1680.930978433126	1292
0	5169	1682.275793045521	1293
0	5173	1683.591290498878	1294
0	5177	1684.812246947451	1295
0	5181	1686.119180053288	1296
0	5185	1687.548205775278	1297
0	5189	1688.94630130489	1298
0	5193	1690.147198443623	1299
0	5197	1691.35743029158	1300
0	5201	1692.56688696523	1301
0	5205	1693.835758049626	1302
0	5209	1695.132301629596	1303
0	5213	1696.419309620633	1304
0	5217	1697.667507541589	1305
0	5221	1698.895156309999	1306
0	5225	1700.105311187057	1307
0	5229	1701.323826792406	1308
0	5233	1702.943353654418	1309
0	5237	1704.339665983374	1310
0	5241	1705.766562892036	1311
0	5245	1706.972594694414	1312
0	5249	1708.204218404998	1313
0	5253	1709.46782345211	1314
0	5257	1710.73191499443	1315
0	5261	1711.944226039922	1316
0	5265	1713.209571365895	1317
0	5269	1714.470646783382	1318
0	5273	1715.741653817948	1319
0	5277	1717.332667894913	1320
0	5281	1718.874581545182	1321
0	5285	1720.129695340013	1322
0	5289	1721.340226781933	1323
0	5293	1722.734805240325	1324
0	5297	1723.938851035891	1325
0	5301	1725.151329788127	1326
0	5305	1726.41743776821	1327
0	5309	1727.649080507329	1328
0	5313	1728.910377234197	1329
0	5317	1730.162093926904	1330
0	5321	1731.388916236231	1331
0	5325	1732.639967493825	1332
0	5329	1733.846034923842	1333
0	5333	1735.157321305003	1334
0	5337	1736.370542464986	1335
0	5341	1737.612811443793	1336
0	5345	1739.007131499426	1337
0	5349	1740.332226365492	1338
0	5353	1741.583253505268	1339
0	5357	1742.885193024075	1340
0	5361	1744.133222205456	1341
0	5365	1745.384165056478	1342
0	5369	1746.58638692168	1343
0	5373	1747.842908085165	1344
0	5377	1749.089868888378	1345
0	5381	1750.3851974815	1346
0	5385	1751.693552300329	1347
0	5389	1752.90081390614	1348
0	5393	1754.1989923967	1349
0	5397	1755.571818333997	1350
0	5401	1757.017148918147	1351
0	5405	1758.323113412468	1352
0	5409	1759.634524886115	1353
0	5413	1760.964112667765	1354
0	5417	1762.203281121753	1355
0	5421	1763.480267315334	1356
0	5425	1764.718279218468	1357
0	5429	1765.929986222401	1358
0	5433	1767.30915165599	1359
0	5437	1768.561077028478	1360
0	5441	1769.910600140291	1361
0	5445	1771.162582334779	1362
0	5449	1772.395593004184	1363
0	5453	1773.634312750908	1364
0	5457	1774.959463646603	1365
0	5461	1776.162504445979	1366
0	5465	1777.444961618297	1367
0	5469	1778.778618460029	1368
0	5473	1780.029644375065	1369
0	5477	1781.241273541742	1370
0	5481	1782.516958973465	1371
0	5485	1783.810177647522	1372
0	5489	1785.019086243271	1373
0	5493	1786.340561814128	1374
0	5497	1787.650126801153	1375
0	5501	1788.950854069992	1376
0	5505	1790.153862349546	1377
0	5509	1791.673628225287	1378
0	5513	1793.093709912724	1379
0	5517	1794.304613099086	1380
0	5521	1795.619220902592	1381
0	5525	1797.021087278585	1382
0	5529	1798.443016830762	1383
0	5533	1799.645979305992	1384
0	5537	1800.84610013618	1385
0	5541	1802.122654044407	1386
0	5545	1803.599464050176	1387
0	5549	1804.851256394683	1388
0	5553	1806.36899945683	1389
0	5557	1807.6432718318	1390
0	5561	1809.002392058134	1391
0	5565	1810.24782081584	1392
0	5569	1811.931579560746	1393
0	5573	1813.152721678244	1394
0	5577	1814.396607095948	1395
0	5581	1815.598537906467	1396
0	5585	1816.987149417151	1397
0	5589	1818.260161619177	1398
0	5593	1819.607422905431	1399
0	5597	1820.992431827418	1400
0	5601	1822.319916972673	1401
0	5605	1823.566632295319	1402
0	5609	1824.866984734109	1403
0	5613	1826.092198701752	1404
0	5617	1827.328925518502	1405
0	5621	1828.537321522505	1406
0	5625	1829.814384628585	1407
0	5629	1831.023301736812	1408
0	5633	1832.255401502601	1409
0	5637	1833.480426830641	1410
0	5641	1834.681299620272	1411
0	5645	1835.891837234335	1412
0	5649	1837.094363346515	1413
0	5653	1838.325157226073	1414
0	5657	1839.540739144684	1415
0	5661	1840.747583032222	1416
0	5665	1842.019688272664	1417
0	5669	1843.226473860469	1418
0	5673	1844.451661338938	1419
0	5677	1845.845647514897	1420
0	5681	1847.091770092658	1421
0	5685	1848.30945816327	1422
0	5689	1849.515126551386	1423
0	5693	1850.797152450647	1424
0	5697	1852.239286115291	1425
0	5701	1853.587767522696	1426
0	5705	1855.004008016969	1427
0	5709	1856.264963935053	1428
0	5713	1857.69253593336	1429
0	5717	1858.909184952752	1430
0	5721	1860.149560243463	1431
0	5725	1861.371824128667	1432
0	5729	1862.696625951795	1433
0	5733	1863.953362763762	1434
0	5737	1865.209039844906	1435
0	5741	1866.484167082273	1436
0	5745	1867.720076650555	1437
0	5749	1868.963068870829	1438
0	5753	1870.170370125213	1439
0	5757	1871.522457715976	1440
0	5761	1872.777248959746	1441
0	5765	1874.116287892469	1442
0	5769	1875.365442428344	1443
0	5773	1876.827462586032	1444
0	5777	1878.044944786035	1445
0	5781	1879.247882780763	1446
0	5785	1880.490992963485	1447
0	5789	1881.917033008223	1448
0	5793	1883.127083560596	1449
0	5797	1884.376935193787	1450
0	5801	1885.781808993144	1451
0	5805	1887.192488205732	1452
0	5809	1888.502627813563	1453
0	5813	1889.81999958635	1454
0	5817	1891.041407805816	1455
0	5821	1892.678407780959	1456
0	5825	1894.128623579213	1457
0	5829	1895.471036680777	1458
0	5833	1896.757710787844	1459
0	5837	1898.003052129677	1460
0	5841	1899.263914065082	1461
0	5845	1900.533441643181	1462
0	5849	1901.83626217501	1463
0	5853	1903.083485049874	1464
0	5857	1904.312791399653	1465
0	5861	1905.558190544328	1466
0	5865	1906.838281412614	1467
0	5869	1908.068514226419	1468
0	5873	1909.282659436918	1469
0	5877	1910.551171444712	1470
0	5881	1911.773550321926	1471
0	5885	1913.088038966873	1472
0	5889	1914.360204841642	1473
0	5893	1915.592686522107	1474
0	5897	1916.802944448097	1475
0	5901	1918.077258013528	1476
0	5905	1919.468213515378	1477
0	5909	1920.680699601162	1478
0	5913	1921.931042212707	1479
0	5917	1923.148459134818	1480
0	5921	1924.374996130595	1481
0	5925	1925.579789850553	1482
0	5929	1926.867841694384	1483
0	5933	1928.420965834433	1484
0	5937	1929.758337760902	1485
0	5941	1930.958724543221	1486
0	5945	1932.252626403573	1487
0	5949	1933.472298472436	1488
0	5953	1934.758813378328	1489
0	5957	1936.053712013006	1490
0	5961	1937.272356976425	1491
0	5965	1938.480844117529	1492
0	5969	1939.79679571413	1493
0	5973	1941.210415106762	1494
0	5977	1942.786783186115	1495
0	5981	1944.113944186347	1496
0	5985	1945.407744997908	1497
0	5989	1946.947038069372	1498
0	5993	1948.186844169871	1499
0	5997	1949.457697777415	1500
0	6001	1950.819996779122	1501
0	6005	1952.055721958649	1502
0	6009	1953.436733059795	1503
0	6013	1954.716472907378	1504
0	6017	1955.970135115675	1505
0	6021	1957.437237613026	1506
0	6025	1958.690955986735	1507
0	6029	1959.964511662229	1508
0	6033	1961.44036779452	1509
0	6037	1962.67145700083	1510
0	6041	1963.999536633137	1511
0	6045	1965.409418475994	1512
0	6049	1966.612763951907	1513
0	6053	1967.859272526282	1514
0	6057	1969.114775698813	1515
0	6061	1970.314914130074	1516
0	6065	1971.524774080094	1517
0	6069	1972.753234098493	1518
0	6073	1974.337425728839	1519
0	6077	1975.575732535547	1520
0	6081	1976.861349151287	1521
0	6085	1978.257090990511	1522
0	6089	1979.560283060803	1523
0	6093	1980.821624867415	1524
0	6097	1982.066953314496	1525
0	6101	1983.325757695664	1526
0	6105	1984.635933887396	1527
0	6109	1985.876896603404	1528
0	6113	1987.161723284388	1529
0	6117	1988.574316341382	1530
0	6121	1989.92334125005	1531
0	6125	1991.413432154168	1532
0	6129	1992.843792841831	1533
0	6133	1994.525262641804	1534
0	6137	1995.777065547516	1535
0	6141	1997.024344901987	1536
0	6145	1998.45005361615	1537
0	6149	1999.98862770644	1538
0	6153	2001.19535740316	1539
0	6157	2002.552321238621	1540
0	6161	2003.867991167591	1541
0	6165	2005.180596447361	1542
0	6169	2006.406871988355	1543
0	6173	2007.634961103905	1544
0	6177	2008.912368308173	1545
0	6181	2010.136761275159	1546
0	6185	2011.485057211597	1547
0	6189	2012.703215133363	1548
0	6193	2014.040487533946	1549
0	6197	2015.496566925423	1550
0	6201	2016.824375554812	1551
0	6205	2018.05920041823	1552
0	6209	2019.325150698237	1553
0	6213	2020.58549857748	1554
0	6217	2021.807068561608	1555
0	6221	2023.075182089418	1556
0	6225	2024.298194666234	1557
0	6229	2025.648779780542	1558
0	6233	2026.925452318755	1559
0	6237	2028.311392975997	1560
0	6241	2029.568985273284	1561
0	6245	2030.78395979411	1562
0	6249	2032.352806991658	1563
0	6253	2033.608477258068	1564
0	6257	2034.844262525301	1565
0	6261	2036.22932108996	1566
0	6265	2037.437547346507	1567
0	6269	2038.807940506949	1568
0	6273	2040.137724163864	1569
0	6277	2041.348528770551	1570
0	6281	2042.919127834283	1571
0	6285	2044.136133543162	1572
0	6289	2045.488500571196	1573
0	6293	2046.724769684817	1574
0	6297	2047.953144695071	1575
0	6301	2049.16097967518	1576
0	6305	2050.36470428441	1577
0	6309	2051.61998421776	1578
0	6313	2052.872227142095	1579
0	6317	2054.083613207826	1580
0	6321	2055.493782566234	1581
0	6325	2056.777765916373	1582
0	6329	2058.034328208475	1583
0	6333	2059.262638391374	1584
0	6337	2060.49605793287	1585
0	6341	2061.786799224864	1586
0	6345	2063.260601554391	1587
0	6349	2064.473104109275	1588
0	6353	2065.821061623408	1589
0	6357	2067.393549060817	1590
0	6361	2068.687963186024	1591
0	6365	2070.157616671416	1592
0	6369	2071.35788473725	1593
0	6373	2072.607609384234	1594
0	6377	2074.075708893209	1595
0	6381	2075.303439646102	1596
0	6385	2076.615475554378	1597
0	6389	2077.844296871169	1598
0	6393	2079.06971733744	1599
0	6397	2080.335764726868	1600
0	6401	2081.538271185623	1601
0	6405	2082.742352635658	1602
0	6409	2083.943102270103	1603
0	6413	2085.245185512008	1604
0	6417	2086.707468064198	1605
0	6421	2087.959944108605	1606
0	6425	2089.278084648464	1607
0	6429	2090.525470806363	1608
0	6433	2091.847598824054	1609
0	6437	2093.213338276121	1610
0	6441	2094.503988403843	1611
0	6445	2095.827443790821	1612
0	6449	2097.104497522898	1613
0	6453	2098.613137236787	1614
0	6457	2099.873940399363	1615
0	6461	2101.117317018314	1616
0	6465	2102.408994405483	1617
0	6469	2103.836825379764	1618
0	6473	2105.142980711394	1619
0	6477	2106.489934042981	1620
0	6481	2107.736621260727	1621
0	6485	2108.980848379628	1622
0	6489	2110.291180909898	1623
0	6493	2111.588378549206	1624
0	6497	2112.84942190351	1625
0	6501	2114.083469722664	1626
0	6505	2115.292360145154	1627
0	6509	2116.699825383394	1628
0	6513	2117.926374887659	1629
0	6517	2119.138301374657	1630
0	6521	2120.346788747038	1631
0	6525	2121.570669602983	1632
0	6529	2122.809532959606	1633
0	6533	2124.029748653231	1634
0	6537	2125.324250452292	1635
0	6541	2126.575838624545	1636
0	6545	2127.821666080851	1637
0	6549	2129.158406652751	1638
0	6553	2130.487952319144	1639
0	6557	2131.762798742636	1640
0	6561	2133.076137568666	1641
0	6565	2134.343017437083	1642
0	6569	2135.558646701333	1643
0	6573	2136.758701313329	1644
0	6577	2137.977098707692	1645
0	6581	2139.232507122177	1646
0	6585	2140.439167635901	1647
0	6589	2141.645733954419	1648
0	6593	2142.876431692673	1649
0	6597	2144.099783063277	1650
0	6601	2145.342608866158	1651
0	6605	2146.812014634656	1652
0	6609	2148.021253386532	1653
0	6613	2149.24551128242	1654
0	6617	2150.537699208248	1655
0	6621	2151.933130085418	1656
0	6625	2153.258437894818	1657
0	6629	2154.620838939198	1658
0	6633	2155.837944121102	1659
0	6637	2157.055277873225	1660
0	6641	2158.297153808451	1661
0	6645	2159.590221164113	1662
0	6649	2160.920141097356	1663
0	6653	2162.132432676171	1664
0	6657	2163.441294293476	1665
0	6661	2164.771448504321	1666
0	6665	2166.164178954046	1667
0	6669	2167.465641629472	1668
0	6673	2168.7465206421	1669
0	6677	2170.113619299619	1670
0	6681	2171.316228696115	1671
0	6685	2172.581503058169	1672
0	6689	2173.787405963455	1673
0	6693	2175.233755426373	1674
0	6697	2176.442100228129	1675
0	6701	2177.647161049061	1676
0	6705	2178.91996333736	1677
0	6709	2180.154620038273	1678
0	6713	2181.495313092801	1679
0	6717	2182.820858159951	1680
0	6721	2184.024138715423	1681
0	6725	2185.278285964789	1682
0	6729	2186.539293043917	1683
0	6733	2187.758282219663	1684
0	6737	2189.132463621809	1685
0	6741	2190.343804094028	1686
0	6745	2191.654248774527	1687
0	6749	2193.024261167453	1688
0	6753	2194.303208826937	1689
0	6757	2195.567291434087	1690
0	6761	2196.856161836848	1691
0	6765	2198.270109589146	1692
0	6769	2199.69690862823	1693
0	6773	2201.029067638848	1694
0	6777	2202.314652560992	1695
0	6781	2203.567369439962	1696
0	6785	2204.82215630936	1697
0	6789	2206.068918717087	1698
0	6793	2207.390304773393	1699
0	6797	2208.662797117024	1700
0	6801	2209.906990435911	1701
0	6805	2211.326866964878	1702
0	6809	2212.887732466571	1703
0	6813	2214.221398570446	1704
0	6817	2215.627207688211	1705
0	6821	2216.827724316821	1706
0	6825	2218.04476205269	1707
0	6829	2219.363230667755	1708
0	6833	2220.678471769693	1709
0	6837	2222.130430785589	1710
0	6841	2223.333897255845	1711
0	6845	2224.657841971723	1712
0	6849	2226.074304689291	1713
0	6853	2227.293785298943	1714
0	6857	2228.680123897323	1715
0	6861	2229.946195406665	1716
0	6865	2231.21755652199	1717
0	6869	2232.432675564634	1718
0	6873	2233.646336450603	1719
0	6877	2234.890808296099	1720
0	6881	2236.187955091456	1721
0	6885	2237.664603108262	1722
0	6889	2238.891959594487	1723
0	6893	2240.348751866463	1724
0	6897	2241.648412794378	1725
0	6901	2242.881657986536	1726
0	6905	2244.199991938872	1727
0	6909	2245.441487597144	1728
0	6913	2246.652721065209	1729
0	6917	2247.944403368939	1730
0	6921	2249.209210404907	1731
0	6925	2250.739428800152	1732
0	6929	2252.02751956188	1733
0	6933	2253.243513122267	1734
0	6937	2254.472765929559	1735
0	6941	2255.702460635437	1736
0	6945	2256.92490135579	1737
0	6949	2258.331697587306	1738
0	6953	2259.633268854612	1739
0	6957	2260.900975025848	1740
0	6961	2262.243996960674	1741
0	6965	2263.673221923258	1742
0	6969	2264.917711770157	1743
0	6973	2266.13823205199	1744
0	6977	2267.461640054664	1745
0	6981	2268.737711714847	1746
0	6985	2270.026233399312	1747
0	6989	2271.265725928521	1748
0	6993	2272.631585267212	1749
0	6997	2273.869644357143	1750
0	7001	2275.092469019463	1751
0	7005	2276.351686499861	1752
0	7009	2277.710844711169	1753
0	7013	2278.967597969552	1754
0	7017	2280.198578183008	1755
0	7021	2281.442793200201	1756
0	7025	2282.67821306161	1757
0	7029	2284.124689075252	1758
0	7033	2285.707146040896	1759
0	7037	2287.038727464075	1760
0	7041	2288.243438047824	1761
0	7045	2289.573466962027	1762
0	7049	2290.79450865235	1763
0	7053	2292.028745493636	1764
0	7057	2293.302324826337	1765
0	7061	2294.588530989067	1766
0	7065	2295.835690561112	1767
0	7069	2297.186731042981	1768
0	7073	2298.414451386833	1769
0	7077	2299.77321431559	1770
0	7081	2301.088590691927	1771
0	7085	2302.330831036867	1772
0	7089	2303.641466343363	1773
0	7093	2304.988814121028	1774
0	7097	2306.520520858799	1775
0	7101	2307.853661293844	1776
0	7105	2309.264528042033	1777
0	7109	2310.479785656847	1778
0	7113	2312.276409226822	1779
0	7117	2313.677360088492	1780
0	7121	2314.922441069555	1781
0	7125	2316.180659174869	1782
0	7129	2317.385288125461	1783
0	7133	2318.651921213063	1784
0	7137	2319.89126945276	1785
0	7141	2321.150757078349	1786
0	7145	2322.41945664194	1787
0	7149	2323.703353970233	1788
0	7153	2324.922251821905	1789
0	7157	2326.21931839669	1790
0	7161	2327.428209832925	1791
0	7165	2328.697161125117	1792
0	7169	2329.957442215917	1793
0	7173	2331.359023962351	1794
0	7177	2332.828832266646	1795
0	7181	2334.127647131963	1796
0	7185	2335.471686292464	1797
0	7189	2336.723007130587	1798
0	7193	2337.960329103423	1799
0	7197	2339.214233054277	1800
0	7201	2340.633709759156	1801
0	7205	2342.000225231894	1802
0	7209	2343.319718045231	1803
0	7213	2344.562518560277	1804
0	7217	2345.824758362712	1805
0	7221	2347.048514917005	1806
0	7225	2348.27925164428	1807
0	7229	2349.485373587492	1808
0	7233	2350.771065897641	1809
0	7237	2352.179834923954	1810
0	7241	2353.401513926529	1811
0	7245	2354.852286160055	1812
0	7249	2356.187468368662	1813
0	7253	2357.400265363149	1814
0	7257	2358.876613007208	1815
0	7261	2360.117330725262	1816
0	7265	2361.424996590147	1817
0	7269	2362.644278889027	1818
0	7273	2363.973375159586	1819
0	7277	2365.185693496815	1820
0	7281	2366.403664602739	1821
0	7285	2367.833789939342	1822
0	7289	2369.171711474416	1823
0	7293	2370.377567359248	1824
0	7297	2371.646354836396	1825
0	7301	2373.240015449377	1826
0	7305	2374.449159314181	1827
0	7309	2375.65930179252	1828
0	7313	2376.908150721159	1829
0	7317	2378.307272285209	1830
0	7321	2379.638001423709	1831
0	7325	2380.921589180463	1832
0	7329	2382.207914034889	1833
0	7333	2383.453787569023	1834
0	7337	2384.690371052937	1835
0	7341	2385.932278133294	1836
0	7345	2387.581007974417	1837
0	7349	2388.922627322467	1838
0	7353	2390.207966391089	1839
0	7357	2391.445737761643	1840
0	7361	2392.935687627011	1841
0	7365	2394.242783131648	1842
0	7369	2395.52482988844	1843
0	7373	2396.797671285981	1844
0	7377	2398.080835581252	1845
0	7381	2399.347187749745	1846
0	7385	2400.552440358781	1847
0	7389	2401.983867848642	1848
0	7393	2403.194858126161	1849
0	7397	2404.475746495023	1850
0	7401	2405.771051837641	1851
0	7405	2407.146418239374	1852
0	7409	2408.47795848863	1853
0	7413	2409.807265682418	1854
0	7417	2411.035241362657	1855
0	7421	2412.23917338765	1856
0	7425	2413.77152960029	1857
0	7429	2415.11985862012	1858
0	7433	2416.45504330581	1859
0	7437	2417.67948899507	1860
0	7441	2418.906671346971	1861
0	7445	2420.340130169178	1862
0	7449	2421.643530751452	1863
0	7453	2422.847918019247	1864
0	7457	2424.089432658696	1865
0	7461	2425.329939981614	1866
0	7465	2426.659944582532	1867
0	7469	2427.870450965822	1868
0	7473	2429.158300514872	1869
0	7477	2430.422848491975	1870
0	7481	2431.764175473504	1871
0	7485	2433.135667783914	1872
0	7489	2434.364631353707	1873
0	7493	2435.600040233717	1874
0	7497	2437.069300220484	1875
0	7501	2438.285662161835	1876
0	7505	2439.981865436325	1877
0	7509	2441.22195305769	1878
0	7513	2442.439929466507	1879
0	7517	2443.808065906032	1880
0	7521	2445.079995583259	1881
0	7525	2446.295122527763	1882
0	7529	2447.694248176897	1883
0	7533	2448.920042699826	1884
0	7537	2450.162767461457	1885
0	7541	2451.369901162099	1886
0	7545	2452.597692466779	1887
0	7549	2453.920011440834	1888
0	7553	2455.251340076369	1889
0	7557	2456.501631318037	1890
0	7561	2458.081134551409	1891
0	7565	2459.318362729723	1892
0	7569	2460.588429833939	1893
0	7573	2461.915237026324	1894
0	7577	2463.165065908045	1895
0	7581	2464.406009839312	1896
0	7585	2465.655756837054	1897
0	7589	2466.98586810084	1898
0	7593	2468.344102165869	1899
0	7597	2469.712949948671	1900
0	7601	2471.035388252269	1901
0	7605	2472.259935200483	1902
0	7609	2473.498342357653	1903
0	7613	2475.062613326455	1904
0	7617	2476.629869284979	1905
0	7621	2477.847585726071	1906
0	7625	2479.269760446321	1907
0	7629	2480.50412798482	1908
0	7633	2481.82483510091	1909
0	7637	2483.044655232965	1910
0	7641	2484.302775963276	1911
0	7645	2485.545165197308	1912
0	7649	2486.768395733723	1913
0	7653	2488.033800089975	1914
0	7657	2489.34315202769	1915
0	7661	2490.617003281392	1916
0	7665	2491.957200976092	1917
0	7669	2493.34934636969	1918
0	7673	2494.642000060744	1919
0	7677	2496.062226905288	1920
0	7681	2497.330668799444	1921
0	7685	2498.555528251871	1922
0	7689	2499.768089286805	1923
0	7693	2501.065612191048	1924
0	7697	2502.419198677626	1925
0	7701	2503.63102029713	1926
0	7705	2504.898667285117	1927
0	7709	2506.160095312979	1928
0	7713	2507.552588896745	1929
0	7717	2508.791498902585	1930
0	7721	2510.005980516033	1931
0	7725	2511.244033487042	1932
0	7729	2512.779529924978	1933
0	7733	2514.045420779662	1934
0	7737	2515.312991011238	1935
0	7741	2516.643860527211	1936
0	7745	2517.851370644297	1937
0	7749	2519.058539866102	1938
0	7753	2520.291406071869	1939
0	7757	2521.702745900297	1940
0	7761	2523.135618489015	1941
0	7765	2524.468350786264	1942
0	7769	2525.70900004302	1943
0	7773	2526.928419140898	1944
0	7777	2528.479335601812	1945
0	7781	2529.959287878658	1946
0	7785	2531.218008415788	1947
0	7789	2532.488593615299	1948
0	7793	2533.734329406444	1949
0	7797	2535.790431232375	1950
0	7801	2537.146386360547	1951
0	7805	2538.368358735097	1952
0	7809	2539.63130452523	1953
0	7813	2540.907856572614	1954
0	7817	2542.11571399531	1955
0	7821	2543.349997967896	1956
0	7825	2544.726514145853	1957
0	7829	2545.962779647157	1958
0	7833	2547.319064802598	1959
0	7837	2548.608484801619	1960
0	7841	2549.880843978429	1961
0	7845	2551.335589103518	1962
0	7849	2552.536562154111	1963
0	7853	2553.900173128171	1964
0	7857	2555.114832707426	1965
0	7861	2556.443546918007	1966
0	7865	2557.768023125886	1967
0	7869	2559.049933580225	1968
0	7873	2560.339302769399	1969
0	7877	2561.794790848373	1970
0	7881	2563.115202964385	1971
0	7885	2564.383001516556	1972
0	7889	2565.627776344032	1973
0	7893	2567.034790577848	1974
0	7897	2568.334047489633	1975
0	7901	2569.713613183517	1976
0	7905	2570.970675459317	1977
0	7909	2572.194734362093	1978
0	7913	2573.44814396089	1979
0	7917	2574.795645792347	1980
0	7921	2576.049265711361	1981
0	7925	2577.250490295245	1982
0	7929	2578.453748360603	1983
0	7933	2579.692731585255	1984
0	7937	2580.899025033441	1985
0	7941	2582.125105349064	1986
0	7945	2583.514364481971	1987
0	7949	2584.785061298376	1988
0	7953	2586.103978105827	1989
0	7957	2587.43748241426	1990
0	7961	2588.663672373318	1991
0	7965	2589.87395057652	1992
0	7969	2591.086521265397	1993
0	7973	2592.358865865404	1994
0	7977	2593.563022077284	1995
0	7981	2595.041750940553	1996
0	7985	2596.307087287274	1997
0	7989	2597.533048145242	1998
0	7993	2598.821713358703	1999
0	7997	2600.134767361716	2000
0	8001	2601.563002418215	2001
0	8005	2602.852867213685	2002
0	8009	2604.305780357682	2003
0	8013	2605.506791825244	2004
0	8017	2606.752401001817	2005
0	8021	2608.016994197174	2006
0	8025	2609.484126664216	2007
0	8029	2610.807490991976	2008
0	8033	2612.086408208552	2009
0	8037	2613.290905375346	2010
0	8041	2614.576258542381	2011
0	8045	2615.987886927185	2012
0	8049	2617.207565773797	2013
0	8053	2618.48097965543	2014
0	8057	2619.693293806121	2015
0	8061	2620.896407899466	2016
0	8065	2622.124429047277	2017
0	8069	2623.349842638563	2018
0	8073	2624.563114541548	2019
0	8077	2626.07032340557	2020
0	8081	2627.295592443262	2021
0	8085	2628.582896348434	2022
0	8089	2629.860508666196	2023
0	8093	2631.071878469038	2024
0	8097	2632.474567164746	2025
0	8101	2633.708470947512	2026
0	8105	2635.066939518195	2027
0	8109	2636.327949548415	2028
0	8113	2637.531238675395	2029
0	8117	2638.733355938581	2030
0	8121	2640.053273508187	2031
0	8125	2641.306310974674	2032
0	8129	2642.511103166383	2033
0	8133	2643.778331527549	2034
0	8137	2645.601074744347	2035
0	8141	2646.829003534548	2036
0	8145	2648.182304175125	2037
0	8149	2649.471132585341	2038
0	8153	2650.697448675002	2039
0	8157	2652.037382631244	2040
0	8161	2653.30473871029	2041
0	8165	2654.531635763124	2042
0	8169	2655.867933096293	2043
0	8173	2657.164823136582	2044
0	8177	2658.547960434592	2045
0	8181	2659.850020683057	2046
0	8185	2661.076008878265	2047
0	8189	2662.572704510973	2048
0	8193	2663.787085646452	2049
0	8197	2665.137717912678	2050
0	8201	2666.605193852064	2051
0	8205	2667.993808734754	2052
0	8209	2669.30490606939	2053
0	8213	2670.572322892337	2054
0	8217	2671.981300281105	2055
0	8221	2673.201799778511	2056
0	8225	2674.428246234703	2057
0	8229	2676.175878119843	2058
0	8233	2677.389654624197	2059
0	8237	2678.603506808408	2060
0	8241	2679.846635141623	2061
0	8245	2681.110398313548	2062
0	8249	2682.339527161887	2063
0	8253	2683.546579398346	2064
0	8257	2684.754133044437	2065
0	8261	2686.24210742257	2066
0	8265	2687.545524546447	2067
0	8269	2689.080551057018	2068
0	8273	2690.309480989835	2069
0	8277	2691.636559601773	2070
0	8281	2692.896384123308	2071
0	8285	2694.139461314616	2072
0	8289	2695.37347127293	2073
0	8293	2696.602825513265	2074
0	8297	2698.056899856982	2075
0	8301	2699.287729612108	2076
0	8305	2700.547551349585	2077
0	8309	2701.761167006922	2078
0	8313	2703.173074002201	2079
0	8317	2704.447688501901	2080
0	8321	2705.652189949984	2081
0	8325	2706.867483773659	2082
0	8329	2708.144228165963	2083
0	8333	2709.382314781399	2084
0	8337	2710.642596171837	2085
0	8341	2711.941135196292	2086
0	8345	2713.180605176214	2087
0	8349	2714.510632849159	2088
0	8353	2715.746327412787	2089
0	8357	2716.948784627364	2090
0	8361	2718.179816688835	2091
0	8365	2719.436048931332	2092
0	8369	2720.65830449503	2093
0	8373	2721.963895584961	2094
0	8377	2723.231747539809	2095
0	8381	2724.623647282276	2096
0	8385	2725.865980322881	2097
0	8389	2727.13047790665	2098
0	8393	2728.370615334171	2099
0	8397	2729.918658476207	2100
0	8401	2731.125508544385	2101
0	8405	2732.356383121179	2102
0	8409	2733.557779328004	2103
0	8413	2734.759139405603	2104
0	8417	2736.201791961515	2105
0	8421	2737.467908929927	2106
0	8425	2738.721311263999	2107
0	8429	2739.950897984718	2108
0	8433	2741.263922068611	2109
0	8437	2742.637488913561	2110
0	8441	2743.897709742966	2111
0	8445	2745.124206956538	2112
0	8449	2746.346601052583	2113
0	8453	2747.583798653426	2114
0	8457	2749.048977715967	2115
0	8461	2750.405628696485	2116
0	8465	2751.618714990063	2117
0	8469	2752.944291876243	2118
0	8473	2754.209949340491	2119
0	8477	2755.491605473598	2120
0	8481	2756.701226623015	2121
0	8485	2758.023287010201	2122
0	8489	2759.24932951715	2123
0	8493	2760.503567486522	2124
0	8497	2761.819217563138	2125
0	8501	2763.019749982978	2126
0	8505	2764.29449185053	2127
0	8509	2765.495633859184	2128
0	8513	2766.775496742228	2129
0	8517	2768.04708138696	2130
0	8521	2769.425602798719	2131
0	8525	2770.634299316487	2132
0	8529	2771.840569673712	2133
0	8533	2773.045812275597	2134
0	8537	2774.481017864104	2135
0	8541	2776.017745695324	2136
0	8545	2777.323079256678	2137
0	8549	2778.718980668726	2138
0	8553	2780.021398146626	2139
0	8557	2781.23788882222	2140
0	8561	2782.440956209788	2141
0	8565	2783.64102265341	2142
0	8569	2785.08189792748	2143
0	8573	2786.566058023064	2144
0	8577	2787.768896117942	2145
0	8581	2789.001514197694	2146
0	8585	2790.222025895245	2147
0	8589	2791.442592807241	2148
0	8593	2792.86884388762	2149
0	8597	2794.186449860342	2150
0	8601	2795.400000643106	2151
0	8605	2796.611530925492	2152
0	8609	2797.862278741893	2153
0	8613	2799.093019556909	2154
0	8617	2800.435751693376	2155
0	8621	2802.005019065497	2156
0	8625	2803.287789247673	2157
0	8629	2804.589805253809	2158
0	8633	2805.920915800175	2159
0	8637	2807.194454024413	2160
0	8641	2808.415878116594	2161
0	8645	2809.666614382202	2162
0	8649	2810.919726134114	2163
0	8653	2812.268670071125	2164
0	8657	2813.537662928305	2165
0	8661	2814.752856614166	2166
0	8665	2815.980778217994	2167
0	8669	2817.522931892611	2168
0	8673	2819.340351599907	2169
0	8677	2820.737768268939	2170
0	8681	2822.048973157575	2171
0	8685	2823.345116868165	2172
0	8689	2824.760343421423	2173
0	8693	2825.96472880859	2174
0	8697	2827.214645983928	2175
0	8701	2828.535328886057	2176
0	8705	2829.994142252694	2177
0	8709	2831.438654336864	2178
0	8713	2832.667639680423	2179
0	8717	2833.941994729154	2180
0	8721	2835.159178464633	2181
0	8725	2836.402908850236	2182
0	8729	2837.757489471127	2183
0	8733	2838.970304329717	2184
0	8737	2840.531557784038	2185
0	8741	2841.872167135745	2186
0	8745	2843.078571487552	2187
0	8749	2844.494872807458	2188
0	8753	2845.705409156696	2189
0	8757	2846.915973184252	2190
0	8761	2848.154230771659	2191
0	8765	2849.496520197807	2192
0	8769	2850.771164645059	2193
0	8773	2851.972885414374	2194
0	8777	2853.29471669199	2195
0	8781	2854.836008018258	2196
0	8785	2856.347348286305	2197
0	8789	2857.642814553126	2198
0	8793	2858.855350439392	2199
0	8797	2860.135744696166	2200
0	8801	2861.379799274182	2201
0	8805	2862.614889841353	2202
0	8809	2863.84585316393	2203
0	8813	2865.310772356315	2204
0	8817	2866.675495956618	2205
0	8821	2867.906407725639	2206
0	8825	2869.124267629945	2207
0	8829	2870.500378984308	2208
0	8833	2871.909805729063	2209
0	8837	2873.530503391092	2210
0	8841	2874.879097359442	2211
0	8845	2876.232066102907	2212
0	8849	2877.647326384871	2213
0	8853	2878.920513088822	2214
0	8857	2880.468432508614	2215
0	8861	2881.675268344109	2216
0	8865	2882.96046949185	2217
0	8869	2884.22441379119	2218
0	8873	2885.485738843342	2219
0	8877	2886.743409738852	2220
0	8881	2888.009774506375	2221
0	8885	2889.232438978218	2222
0	8889	2890.658308180636	2223
0	8893	2891.913401378092	2224
0	8897	2893.136807082721	2225
0	8901	2894.381086074925	2226
0	8905	2895.628142522546	2227
0	8909	2896.84601742789	2228
0	8913	2898.148497752382	2229
0	8917	2899.406725285497	2230
0	8921	2900.732614886012	2231
0	8925	2901.963104485444	2232
0	8929	2903.16890682856	2233
0	8933	2904.442734341452	2234
0	8937	2906.025106898819	2235
0	8941	2907.228686204661	2236
0	8945	2908.46895090113	2237
0	8949	2909.905643448445	2238
0	8953	2911.128718632143	2239
0	8957	2912.498198774598	2240
0	8961	2913.734896262386	2241
0	8965	2915.015322312168	2242
0	8969	2916.633787343215	2243
0	8973	2918.02471239221	2244
0	8977	2919.335148416183	2245
0	8981	2920.863210434092	2246
0	8985	2922.091351007528	2247
0	8989	2923.303063091434	2248
0	8993	2924.525514542642	2249
0	8997	2925.825164836687	2250
0	9001	2927.03294965725	2251
0	9005	2928.854111094889	2252
0	9009	2930.099243253447	2253
0	9013	2931.740608763866	2254
0	9017	2933.114195741949	2255
0	9021	2934.406659033926	2256
0	9025	2935.638876070608	2257
0	9029	2936.852575049763	2258
0	9033	2938.098539352567	2259
0	9037	2939.386052511124	2260
0	9041	2940.729364569315	2261
0	9045	2941.929571245899	2262
0	9049	2943.248626525575	2263
0	9053	2944.470804890508	2264
0	9057	2945.723981483686	2265
0	9061	2947.236618348091	2266
0	9065	2948.45456921769	2267
0	9069	2949.694682752646	2268
0	9073	2951.118900218357	2269
0	9077	2952.420619147631	2270
0	9081	2953.706200279656	2271
0	9085	2954.939170131649	2272
0	9089	2956.168844810228	2273
0	9093	2957.66415402472	2274
0	9097	2958.891176234672	2275
0	9101	2960.221577183973	2276
0	9105	2961.481067800739	2277
0	9109	2962.72106350478	2278
0	9113	2963.972671977349	2279
0	9117	2965.329579062078	2280
0	9121	2966.53671582314	2281
0	9125	2967.748163296079	2282
0	9129	2969.23488390335	2283
0	9133	2970.484694413519	2284
0	9137	2971.839319197877	2285
0	9141	2973.064321626434	2286
0	9145	2974.332948342186	2287
0	9149	2975.648063118601	2288
0	9153	2976.887649660854	2289
0	9157	2978.098457891582	2290
0	9161	2979.318483187074	2291
0	9165	2980.56907128015	2292
0	9169	2981.787258194358	2293
0	9173	2983.019644365093	2294
0	9177	2984.247152596469	2295
0	9181	2985.517744013853	2296
0	9185	2986.74265790337	2297
0	9189	2987.98572045398	2298
0	9193	2989.309404680288	2299
0	9197	2990.631961980482	2300
0	9201	2991.978770471765	2301
0	9205	2993.181258879929	2302
0	9209	2994.426433100547	2303
0	9213	2995.72694172283	2304
0	9217	2996.944304910209	2305
0	9221	2998.170515607062	2306
0	9225	2999.474004550071	2307
0	9229	3000.705298935441	2308
0	9233	3001.94577012197	2309
0	9237	3003.306841793847	2310
0	9241	3004.77603369128	2311
0	9245	3006.287414107465	2312
0	9249	3007.642843269407	2313
0	9253	3008.880903477206	2314
0	9257	3010.521194916298	2315
0	9261	3011.896528786708	2316
0	9265	3013.314887348351	2317
0	9269	3014.525867813054	2318
0	9273	3015.726400734562	2319
0	9277	3017.026907918192	2320
0	9281	3018.233131139915	2321
0	9285	3019.572174348863	2322
0	9289	3021.000641262759	2323
0	9293	3022.217598926765	2324
0	9297	3023.430261004534	2325
0	9301	3024.685774009053	2326
0	9305	3025.976305043232	2327
0	9309	3027.399524387492	2328
0	9313	3028.64334715652	2329
0	9317	3029.854281607874	2330
0	9321	3031.05771710859	2331
0	9325	3032.259543318539	2332
0	9329	3033.468194596185	2333
0	9333	3034.757497285142	2334
0	9337	3036.102669137492	2335
0	9341	3037.359856213992	2336
0	9345	3038.744626876023	2337
0	9349	3040.104917429769	2338
0	9353	3041.350051156434	2339
0	9357	3042.807039512036	2340
0	9361	3044.035378297053	2341
0	9365	3045.270924957064	2342
0	9369	3046.538965942318	2343
0	9373	3047.788134296835	2344
0	9377	3049.004655151787	2345
0	9381	3050.271261301979	2346
0	9385	3051.56721779983	2347
0	9389	3052.855927760739	2348
0	9393	3054.190445985262	2349
0	9397	3055.80305320614	2350
0	9401	3057.12478115708	2351
0	9405	3058.444292456555	2352
0	9409	3059.913234395397	2353
0	9413	3061.162590039261	2354
0	9417	3062.454648421571	2355
0	9421	3063.685269378298	2356
0	9425	3064.975704957649	2357
0	9429	3066.465068954804	2358
0	9433	3067.798623468233	2359
0	9437	3069.01318946805	2360
0	9441	3070.342573278712	2361
0	9445	3071.669964840473	2362
0	9449	3072.902700277069	2363
0	9453	3074.362255087672	2364
0	9457	3075.721835183379	2365
0	9461	3077.031097882976	2366
0	9465	3078.465897723238	2367
0	9469	3079.720898459648	2368
0	9473	3081.072042835433	2369
0	9477	3082.294231137239	2370
0	9481	3083.683532620585	2371
0	9485	3084.92933622502	2372
0	9489	3086.318199520663	2373
0	9493	3087.640914046421	2374
0	9497	3088.869365129597	2375
0	9501	3090.174214351348	2376
0	9505	3091.549690220319	2377
0	9509	3093.012766036935	2378
0	9513	3094.339699370247	2379
0	9517	3095.741335462135	2380
0	9521	3096.980397862264	2381
0	9525	3098.349761778488	2382
0	9529	3099.662057239174	2383
0	9533	3101.10447701458	2384
0	9537	3102.416314809256	2385
0	9541	3103.648657776798	2386
0	9545	3105.010786437067	2387
0	9549	3106.256914383357	2388
0	9553	3107.456920440537	2389
0	9557	3108.704706909476	2390
0	9561	3110.008895099366	2391
0	9565	3111.291095613435	2392
0	9569	3112.602841233604	2393
0	9573	3113.913169017418	2394
0	9577	3115.199305059069	2395
0	9581	3116.43309271676	2396
0	9585	3117.783320657548	2397
0	9589	3118.985286093266	2398
0	9593	3120.200779524835	2399
0	9597	3121.451732568569	2400
0	9601	3122.68758722703	2401
0	9605	3123.924480482506	2402
0	9609	3125.26548491158	2403
0	9613	3126.750535132563	2404
0	9617	3127.99253020369	2405
0	9621	3129.411692768595	2406
0	9625	3130.704238384221	2407
0	9629	3132.101071828239	2408
0	9633	3133.398197374636	2409
0	9637	3134.704040355476	2410
0	9641	3135.939509998025	2411
0	9645	3137.18171353674	2412
0	9649	3138.443500698611	2413
0	9653	3139.72309607551	2414
0	9657	3141.03855060004	2415
0	9661	3142.407412262381	2416
0	9665	3143.755983539146	2417
0	9669	3144.966365306117	2418
0	9673	3146.270555795498	2419
0	9677	3147.632038474946	2420
0	9681	3148.880772022032	2421
0	9685	3150.084977192404	2422
0	9689	3151.288185574457	2423
0	9693	3152.65769660987	2424
0	9697	3154.088968144411	2425
0	9701	3155.453767208017	2426
0	9705	3156.654709148673	2427
0	9709	3157.859944567383	2428
0	9713	3159.070746521985	2429
0	9717	3160.369407302945	2430
0	9721	3161.722319526371	2431
0	9725	3162.992126067881	2432
0	9729	3164.198408571081	2433
0	9733	3165.4170197842	2434
0	9737	3166.833996978295	2435
0	9741	3168.05005833909	2436
0	9745	3169.478445433442	2437
0	9749	3170.826840180145	2438
0	9753	3172.032601125223	2439
0	9757	3173.31646299563	2440
0	9761	3174.817966446158	2441
0	9765	3176.425415570963	2442
0	9769	3177.69766543783	2443
0	9773	3179.300789913557	2444
0	9777	3180.500859092512	2445
0	9781	3182.192396042122	2446
0	9785	3183.466496404004	2447
0	9789	3184.679122537058	2448
0	9793	3185.927022191265	2449
0	9797	3187.405498253144	2450
0	9801	3189.027896964984	2451
0	9805	3190.25594372873	2452
0	9809	3191.486133763511	2453
0	9813	3192.747421861068	2454
0	9817	3194.00657965744	2455
0	9821	3195.34821649015	2456
0	9825	3196.558165074362	2457
0	9829	3197.780933072914	2458
0	9833	3199.190204725047	2459
0	9837	3200.473747624793	2460
0	9841	3201.677573315315	2461
0	9845	3202.898130296195	2462
0	9849	3204.245639000922	2463
0	9853	3205.456702676522	2464
0	9857	3206.68932124202	2465
0	9861	3207.901714275384	2466
0	9865	3209.116695834784	2467
0	9869	3210.360956322198	2468
0	9873	3211.68183501107	2469
0	9877	3212.882301581176	2470
0	9881	3214.180250589299	2471
0	9885	3215.435563711411	2472
0	9889	3216.639186737698	2473
0	9893	3217.948309829357	2474
0	9897	3219.197439760884	2475
0	9901	3220.448804084476	2476
0	9905	3221.729924893912	2477
0	9909	3222.938894894919	2478
0	9913	3224.182968879608	2479
0	9917	3225.389442879078	2480
0	9921	3226.689333656069	2481
0	9925	3227.921922809276	2482
0	9929	3229.184020855414	2483
0	9933	3230.402571038777	2484
0	9937	3231.706509907682	2485
0	9941	3233.242022353975	2486
0	9945	3234.536064487756	2487
0	9949	3235.752461218266	2488
0	9953	3236.974894463511	2489
0	9957	3238.338607466158	2490
0	9961	3239.579832403555	2491
0	9965	3240.86804741099	2492
0	9969	3242.104180676577	2493
0	9973	3243.388411988375	2494
0	9977	3244.98168456184	2495
0	9981	3246.253445090822	2496
0	9985	3247.481403756324	2497
0	9989	3249.038116236003	2498
0	9993	3250.26429240697	2499
0	9997	3251.509523676037	2500
0	10001	3252.715442495814	2501
0	10005	3254.070519663655	2502
0	10009	3255.567026600061	2503
0	10013	3256.848060813513	2504
0	10017	3258.112687775501	2505
0	10021	3259.363045250448	2506
0	10025	3261.014323782039	2507
0	10029	3262.525473862807	2508
0	10033	3263.863983948446	2509
0	10037	3265.15519289877	2510
0	10041	3266.358677503432	2511
0	10045	3267.57133784149	2512
0	10049	3268.930078767678	2513
0	10053	3270.18412810688	2514
0	10057	3271.623525187044	2515
0	10061	3272.975659523548	2516
0	10065	3274.308741737315	2517
0	10069	3275.627076117826	2518
0	10073	3276.857991272949	2519
0	10077	3278.306091100549	2520
0	10081	3279.521807442785	2521
0	10085	3280.75183385072	2522
0	10089	3281.973408211561	2523
0	10093	3283.315370044979	2524
0	10097	3285.009948814398	2525
0	10101	3286.271544320579	2526
0	10105	3287.540863319737	2527
0	10109	3288.826103345273	2528
0	10113	3290.592776900928	2529
0	10117	3292.102989958346	2530
0	10121	3293.41046119732	2531
0	10125	3294.998157257667	2532
0	10129	3296.464697117905	2533
0	10133	3297.862451311802	2534
0	10137	3299.165570729874	2535
0	10141	3300.410058459705	2536
0	10145	3301.63837131219	2537
0	10149	3303.057030198299	2538
0	10153	3304.294867069006	2539
0	10157	3305.596646597695	2540
0	10161	3307.02992922942	2541
0	10165	3308.28614055561	2542
0	10169	3309.741365642631	2543
0	10173	3310.94500535162	2544
0	10177	3312.246572350848	2545
0	10181	3313.593595670343	2546
0	10185	3314.803898217162	2547
0	10189	3316.073634941192	2548
0	10193	3317.30386864084	2549
0	10197	3318.658134691146	2550
0	10201	3319.87772762554	2551
0	10205	3321.21556929173	2552
0	10209	3322.512341795542	2553
0	10213	3323.870119911958	2554
0	10217	3325.086889566819	2555
0	10221	3326.322650127673	2556
0	10225	3327.580783430617	2557
0	10229	3328.942127321228	2558
0	10233	3330.222521867194	2559
0	10237	3331.502116594091	2560
0	10241	3332.727976921065	2561
0	10245	3333.992094310659	2562
0	10249	3335.217862193095	2563
0	10253	3336.530293952656	2564
0	10257	3337.761347517423	2565
0	10261	3338.963506525497	2566
0	10265	3340.390864977958	2567
0	10269	3341.601658785441	2568
0	10273	3342.88481404822	2569
0	10277	3344.119370221891	2570
0	10281	3345.33281610768	2571
0	10285	3346.940212152922	2572
0	10289	3348.163154905076	2573
0	10293	3349.378207637172	2574
0	10297	3350.854423468682	2575
0	10301	3352.094560264981	2576
0	10305	3353.341258028618	2577
0	10309	3354.546498268498	2578
0	10313	3355.789636119384	2579
0	10317	3357.029873440512	2580
0	10321	3358.293360079179	2581
0	10325	3359.531974321723	2582
0	10329	3360.78208840055	2583
0	10333	3362.275471570331	2584
0	10337	3363.516763057894	2585
0	10341	3364.903295533349	2586
0	10345	3366.148941894752	2587
0	10349	3367.397192313207	2588
0	10353	3368.79852673879	2589
0	10357	3370.001034835746	2590
0	10361	3371.319690079901	2591
0	10365	3372.697494150363	2592
0	10369	3373.899286993801	2593
0	10373	3375.207325781609	2594
0	10377	3376.724681894878	2595
0	10381	3377.941212349468	2596
0	10385	3379.314696557614	2597
0	10389	3381.068640492499	2598
0	10393	3382.522546703515	2599
0	10397	3383.733108695815	2600
0	10401	3384.960643998554	2601
0	10405	3386.362470768725	2602
0	10409	3387.679094463561	2603
0	10413	3388.913946174716	2604
0	10417	3390.490142627298	2605
0	10421	3391.747298162645	2606
0	10425	3392.960890112621	2607
0	10429	3394.319587585349	2608
0	10433	3395.656900966305	2609
0	10437	3396.97006877308	2610
0	10441	3398.197846072491	2611
0	10445	3399.675689651653	2612
0	10449	3400.947028763483	2613
0	10453	3402.244087703465	2614
0	10457	3403.473186215551	2615
0	10461	3404.68347924698	2616
0	10465	3405.988185152995	2617
0	10469	3407.40391279987	2618
0	10473	3408.720256459102	2619
0	10477	3410.066857568447	2620
0	10481	3411.271212632578	2621
0	10485	3412.595647140363	2622
0	10489	3413.875328556961	2623
0	10493	3415.080851665418	2624
0	10497	3416.383909310083	2625
0	10501	3417.634364302888	2626
0	10505	3418.918859827181	2627
0	10509	3420.137184323656	2628
0	10513	3421.369160444694	2629
0	10517	3422.741703647165	2630
0	10521	3423.966655515932	2631
0	10525	3425.287229161427	2632
0	10529	3426.503903416873	2633
0	10533	3427.918527895328	2634
0	10537	3429.261186728468	2635
0	10541	3430.801032165098	2636
0	10545	3432.15839985018	2637
0	10549	3433.507453229603	2638
0	10553	3434.787379077317	2639
0	10557	3436.502940895123	2640
0	10561	3437.778939194732	2641
0	10565	3439.074330637069	2642
0	10569	3440.319132384784	2643
0	10573	3441.522916030963	2644
0	10577	3442.730804129265	2645
0	10581	3443.932239533062	2646
0	10585	3445.545945774225	2647
0	10589	3446.787816596571	2648
0	10593	3448.191721879838	2649
0	10597	3449.565149298379	2650
0	10601	3450.788153417511	2651
0	10605	3452.18924554472	2652
0	10609	3453.444558443655	2653
0	10613	3454.968498255612	2654
0	10617	3456.274201446027	2655
0	10621	3457.480935313012	2656
0	10625	3458.761375790458	2657
0	10629	3459.965935284715	2658
0	10633	3461.194863635216	2659
0	10637	3462.639374854823	2660
0	10641	3463.878538814938	2661
0	10645	3465.114929877854	2662
0	10649	3466.470124454362	2663
0	10653	3467.751766143805	2664
0	10657	3468.969493662561	2665
0	10661	3470.573734639564	2666
0	10665	3471.782244807571	2667
0	10669	3473.033402153288	2668
0	10673	3474.305389205866	2669
0	10677	3475.615012138093	2670
0	10681	3476.840028901027	2671
0	10685	3478.091258165734	2672
0	10689	3479.317695939451	2673
0	10693	3480.663881671111	2674
0	10697	3481.938518882319	2675
0	10701	3483.213536091062	2676
0	10705	3484.482557948039	2677
0	10709	3485.709676258993	2678
0	10713	3487.172727362494	2679
0	10717	3488.404377515045	2680
0	10721	3489.674384479618	2681
0	10725	3490.904233064169	2682
0	10729	3492.126095211731	2683
0	10733	3493.402092380186	2684
0	10737	3494.604837539953	2685
0	10741	3495.926303517345	2686
0	10745	3497.135096851876	2687
0	10749	3498.633240159749	2688
0	10753	3499.887688337011	2689
0	10757	3501.206133913612	2690
0	10761	3502.478932909296	2691
0	10765	3503.830889358897	2692
0	10769	3505.134873877055	2693
0	10773	3506.353377534533	2694
0	10777	3507.617093313675	2695
0	10781	3508.863943808956	2696
0	10785	3510.171296538793	2697
0	10789	3511.424702590057	2698
0	10793	3512.624774311847	2699
0	10797	3513.940731707298	2700
0	10801	3515.142220832849	2701
0	10805	3516.377303181856	2702
0	10809	3517.739623229501	2703
0	10813	3518.975762107765	2704
0	10817	3520.270876759128	2705
0	10821	3521.51486520301	2706
0	10825	3522.855816578896	2707
0	10829	3524.222048817602	2708
0	10833	3525.469595207826	2709
0	10837	3526.755773116723	2710
0	10841	3528.047635884471	2711
0	10845	3529.255462019259	2712
0	10849	3530.518793336879	2713
0	10853	3531.726941037515	2714
0	10857	3533.056154515295	2715
[...]
3	19784	6440.732618731414	4946
3	19788	6442.009127780397	4947
3	19792	6443.24670232796	4948
3	19796	6444.449194581513	4949
3	19800	6445.652029938228	4950
3	19804	6446.948728382301	4951
3	19808	6448.151706930882	4952
3	19812	6449.383344792212	4953
3	19816	6450.669530256693	4954
3	19820	6451.879938163305	4955
3	19824	6453.088593723838	4956
3	19828	6454.340162205744	4957
3	19832	6455.544654438798	4958
3	19836	6456.826417397648	4959
3	19840	6458.045397769585	4960
3	19844	6459.247116527594	4961
3	19848	6460.508710084762	4962
3	19852	6461.790591740356	4963
3	19856	6463.060060108179	4964
3	19860	6464.331640937925	4965
3	19864	6465.778465382831	4966
3	19868	6467.13640883003	4967
3	19872	6468.390824526416	4968
3	19876	6469.645911162516	4969
3	19880	6470.857315283767	4970
3	19884	6472.137935770825	4971
3	19888	6473.364191269401	4972
3	19892	6474.699674443629	4973
3	19896	6476.190462491354	4974
3	19900	6477.617906840946	4975
3	19904	6478.908331209523	4976
3	19908	6480.156140367025	4977
3	19912	6481.400043996456	4978
3	19916	6482.692082278218	4979
3	19920	6484.115305673824	4980
3	19924	6485.433922534041	4981
3	19928	6486.669672091699	4982
3	19932	6487.874095567981	4983
3	19936	6489.287038353934	4984
3	19940	6490.648363123772	4985
3	19944	6491.861275377209	4986
3	19948	6493.108665326777	4987
3	19952	6494.5870980273	4988
3	19956	6495.898036721699	4989
3	19960	6497.375594213072	4990
3	19964	6498.639396509577	4991
3	19968	6499.881749720161	4992
3	19972	6501.202929771697	4993
3	19976	6502.404700227666	4994
3	19980	6503.733555660266	4995
3	19984	6504.977102963724	4996
3	19988	6506.198369207446	4997
3	19992	6507.418313254382	4998
3	19996	6508.72683575604	4999
3	20000	6509.957769522739	5000
3	20004	6511.348367729483	5001
3	20008	6512.64663292192	5002
3	20012	6513.873495038122	5003
3	20016	6515.132031671197	5004
3	20020	6516.473989269859	5005
3	20024	6517.807288402221	5006
3	20028	6519.107752824304	5007
3	20032	6520.409098271284	5008
3	20036	6521.919488014769	5009
3	20040	6523.155235141407	5010
3	20044	6524.385378977954	5011
3	20048	6525.624516936903	5012
3	20052	6526.841273368153	5013
3	20056	6528.201294631823	5014
3	20060	6529.438708866397	5015
3	20064	6530.714672410722	5016
3	20068	6531.944507459082	5017
3	20072	6533.158133036704	5018
3	20076	6534.499533622165	5019
3	20080	6535.787897371042	5020
3	20084	6537.119988979827	5021
3	20088	6538.33483653743	5022
3	20092	6539.645607359314	5023
3	20096	6541.048640630085	5024
3	20100	6542.273023624254	5025
3	20104	6543.486865979828	5026
3	20108	6544.884776239904	5027
3	20112	6546.195463304724	5028
3	20116	6547.709127365821	5029
3	20120	6549.13624606101	5030
3	20124	6550.412090567861	5031
3	20128	6551.622418339469	5032
3	20132	6552.927221491578	5033
3	20136	6554.202773162639	5034
3	20140	6555.472226396264	5035
3	20144	6556.989451561508	5036
3	20148	6558.222797319988	5037
3	20152	6559.455362408772	5038
3	20156	6560.689070315794	5039
3	20160	6561.922069157561	5040
3	20164	6563.159672486065	5041
3	20168	6564.423170200396	5042
3	20172	6565.644347297029	5043
3	20176	6567.139429477375	5044
3	20180	6568.571630361239	5045
3	20184	6569.933082287094	5046
3	20188	6571.328555880315	5047
3	20192	6572.560189501776	5048
3	20196	6573.822112163145	5049
3	20200	6575.048454742519	5050
3	20204	6576.294222954513	5051
3	20208	6577.516364552511	5052
3	20212	6578.996181230779	5053
3	20216	6580.252344976138	5054
3	20220	6581.477495866996	5055
3	20224	6582.842472741863	5056
3	20228	6584.123113727334	5057
3	20232	6585.3396368357	5058
3	20236	6586.545240779397	5059
3	20240	6587.841228393036	5060
3	20244	6589.062449025973	5061
3	20248	6590.326369937886	5062
3	20252	6591.619010845851	5063
3	20256	6592.922947347642	5064
3	20260	6594.231472635375	5065
3	20264	6595.483137757994	5066
3	20268	6596.770125195291	5067
3	20272	6598.112762778365	5068
3	20276	6599.516478728767	5069
3	20280	6600.755193252038	5070
3	20284	6602.457340903428	5071
3	20288	6603.785414549628	5072
3	20292	6605.129748371242	5073
3	20296	6606.650785536202	5074
3	20300	6607.913351546469	5075
3	20304	6609.199921229314	5076
3	20308	6610.579458628783	5077
3	20312	6611.880124130085	5078
3	20316	6613.092951498787	5079
3	20320	6614.367353702754	5080
3	20324	6615.68232448342	5081
3	20328	6616.948868030655	5082
3	20332	6618.221919252807	5083
3	20336	6619.440377281823	5084
3	20340	6620.659986785811	5085
3	20344	6621.976317532417	5086
3	20348	6623.537263808893	5087
3	20352	6624.830447875881	5088
3	20356	6626.071762944933	5089
3	20360	6627.35225705867	5090
3	20364	6628.647818289546	5091
3	20368	6629.884408164195	5092
3	20372	6631.295269857731	5093
3	20376	6632.545438510082	5094
3	20380	6633.816100025808	5095
3	20384	6635.072873819182	5096
3	20388	6636.285106159793	5097
3	20392	6637.592250169944	5098
3	20396	6638.963031944136	5099
3	20400	6640.292455845788	5100
3	20404	6641.536029789318	5101
3	20408	6642.773565112898	5102
3	20412	6644.381413417906	5103
3	20416	6645.676796192345	5104
3	20420	6647.092062336662	5105
3	20424	6648.338325307031	5106
3	20428	6649.730363712122	5107
3	20432	6650.996763659451	5108
3	20436	6652.240808636054	5109
3	20440	6653.44935543843	5110
3	20444	6654.790878243867	5111
3	20448	6656.077313942778	5112
3	20452	6657.706562219599	5113
3	20456	6659.133324678892	5114
3	20460	6660.408047347805	5115
3	20464	6661.9146742954	5116
3	20468	6663.178300360166	5117
3	20472	6664.419042332446	5118
3	20476	6665.620519775709	5119
3	20480	6666.839167927406	5120
3	20484	6668.159633153576	5121
3	20488	6669.735308719307	5122
3	20492	6671.13083842179	5123
3	20496	6672.490148140217	5124
3	20500	6673.718577879293	5125
3	20504	6674.953275302282	5126
3	20508	6676.191112534993	5127
3	20512	6677.391562550232	5128
3	20516	6678.661012764333	5129
3	20520	6679.891693038188	5130
3	20524	6681.099174030161	5131
3	20528	6682.609161765866	5132
3	20532	6683.818553553312	5133
3	20536	6685.082849693795	5134
3	20540	6686.337514105613	5135
3	20544	6687.57237259796	5136
3	20548	6688.802647966491	5137
3	20552	6690.044562702902	5138
3	20556	6691.296656578701	5139
3	20560	6692.522688802313	5140
3	20564	6693.783273207473	5141
3	20568	6695.066584134236	5142
3	20572	6696.640699964389	5143
3	20576	6697.865183560481	5144
3	20580	6699.353888966243	5145
3	20584	6700.672926058025	5146
3	20588	6701.887976973918	5147
3	20592	6703.151987505903	5148
3	20596	6704.566192401298	5149
3	20600	6705.783509929904	5150
3	20604	6706.991870556045	5151
3	20608	6708.637600255373	5152
3	20612	6709.908453847785	5153
3	20616	6711.15915875218	5154
3	20620	6712.377060641755	5155
3	20624	6713.626398458669	5156
3	20628	6714.871952080534	5157
3	20632	6716.130444777363	5158
3	20636	6717.466445170087	5159
3	20640	6718.690980392357	5160
3	20644	6719.946232949514	5161
3	20648	6721.475451027727	5162
3	20652	6722.839932299646	5163
3	20656	6724.095183739657	5164
3	20660	6725.422058238381	5165
3	20664	6726.710286643255	5166
3	20668	6728.196475765849	5167
3	20672	6729.437909322337	5168
3	20676	6730.714299773122	5169
3	20680	6731.979799725788	5170
3	20684	6733.341823301735	5171
3	20688	6734.776258241757	5172
3	20692	6736.015252922681	5173
3	20696	6737.233598765114	5174
3	20700	6738.476024703474	5175
3	20704	6739.833722545237	5176
3	20708	6741.08489022164	5177
3	20712	6742.346905250706	5178
3	20716	6743.599823855394	5179
3	20720	6744.829521864143	5180
3	20724	6746.040420039342	5181
3	20728	6747.356405986367	5182
3	20732	6748.629615359419	5183
3	20736	6749.857630751613	5184
3	20740	6751.067812234737	5185
3	20744	6752.284461911044	5186
3	20748	6753.704973399555	5187
3	20752	6754.945044465324	5188
3	20756	6756.15142845215	5189
3	20760	6757.386084355936	5190
3	20764	6758.645812512367	5191
3	20768	6759.97688288912	5192
3	20772	6761.210387383966	5193
3	20776	6762.555632829484	5194
3	20780	6763.772459242226	5195
3	20784	6764.983645382353	5196
3	20788	6766.336817492327	5197
3	20792	6767.682867639573	5198
3	20796	6769.008370532808	5199
3	20800	6770.238018383763	5200
3	20804	6771.453794690609	5201
3	20808	6772.679484918177	5202
3	20812	6773.979660423541	5203
3	20816	6775.301993780033	5204
3	20820	6776.659282761587	5205
3	20824	6778.066233709207	5206
3	20828	6779.41466069592	5207
3	20832	6780.708116744512	5208
3	20836	6781.917798631215	5209
3	20840	6783.397700939664	5210
3	20844	6784.713382103924	5211
3	20848	6786.022871953116	5212
3	20852	6787.348758478813	5213
3	20856	6788.741616423708	5214
3	20860	6790.139787136786	5215
3	20864	6791.413313761652	5216
3	20868	6792.684250429072	5217
3	20872	6794.101161341499	5218
3	20876	6795.362982753643	5219
3	20880	6796.575216235598	5220
3	20884	6798.110789861542	5221
3	20888	6799.359631233398	5222
3	20892	6800.718846185381	5223
3	20896	6801.953012217654	5224
3	20900	6803.234822276589	5225
3	20904	6804.450984309373	5226
3	20908	6805.691124208883	5227
3	20912	6806.907307174321	5228
3	20916	6808.293893854313	5229
3	20920	6809.552388498233	5230
3	20924	6810.81316555075	5231
3	20928	6812.071583265863	5232
3	20932	6813.281309845331	5233
3	20936	6814.722898377117	5234
3	20940	6815.983577761934	5235
3	20944	6817.46675268939	5236
3	20948	6818.872300507326	5237
3	20952	6820.074226597762	5238
3	20956	6821.333698447951	5239
3	20960	6822.563692097171	5240
3	20964	6823.76513740656	5241
3	20968	6824.965985607728	5242
3	20972	6826.260528039459	5243
3	20976	6827.673738558666	5244
3	20980	6829.421722542304	5245
3	20984	6830.697674789851	5246
3	20988	6832.067637636248	5247
3	20992	6833.285208133025	5248
3	20996	6834.581242307784	5249
3	21000	6835.958716674368	5250
3	21004	6837.404522373682	5251
3	21008	6838.611966857232	5252
3	21012	6839.979943065285	5253
3	21016	6841.372101292322	5254
3	21020	6842.641144250597	5255
3	21024	6843.842773330042	5256
3	21028	6845.132231215985	5257
3	21032	6846.392908047879	5258
3	21036	6847.724321347646	5259
3	21040	6848.968011788975	5260
3	21044	6850.355369170583	5261
3	21048	6851.660065697099	5262
3	21052	6852.866059425348	5263
3	21056	6854.145958209924	5264
3	21060	6855.495036561465	5265
3	21064	6856.738702148632	5266
3	21068	6857.998032954652	5267
3	21072	6859.625322545285	5268
3	21076	6860.933438657822	5269
3	21080	6862.189535491261	5270
3	21084	6863.534196425144	5271
3	21088	6864.80049624338	5272
3	21092	6866.078040903177	5273
3	21096	6867.377145148593	5274
3	21100	6868.594403840246	5275
3	21104	6869.804846674503	5276
3	21108	6871.057529782797	5277
3	21112	6872.47074692054	5278
3	21116	6873.678745765371	5279
3	21120	6874.962217442563	5280
3	21124	6876.279110410177	5281
3	21128	6877.591715709474	5282
3	21132	6879.098990394869	5283
3	21136	6880.554918482893	5284
3	21140	6881.913516410705	5285
3	21144	6883.216333938518	5286
3	21148	6884.46572856515	5287
3	21152	6885.673172315816	5288
3	21156	6886.960949414487	5289
3	21160	6888.169677305482	5290
3	21164	6889.405946704369	5291
3	21168	6890.689933221248	5292
3	21172	6891.967813664205	5293
3	21176	6893.18021876547	5294
3	21180	6894.415990158189	5295
3	21184	6895.620373276856	5296
3	21188	6896.954438384749	5297
3	21192	6898.202834359712	5298
3	21196	6899.432855923048	5299
3	21200	6901.015039494712	5300
3	21204	6902.547519773522	5301
3	21208	6903.827306174509	5302
3	21212	6905.135761944476	5303
3	21216	6906.551880822766	5304
3	21220	6907.759006564008	5305
3	21224	6909.019310812874	5306
3	21228	6910.220394438981	5307
3	21232	6911.687261211336	5308
3	21236	6913.469732571079	5309
3	21240	6914.672769682459	5310
3	21244	6915.897680656646	5311
3	21248	6917.224781029562	5312
3	21252	6918.462259501139	5313
3	21256	6919.973167275059	5314
3	21260	6921.196538952346	5315
3	21264	6922.459945063331	5316
3	21268	6923.923195436737	5317
3	21272	6925.152478975874	5318
3	21276	6926.458037949775	5319
3	21280	6927.763450865758	5320
3	21284	6929.033646719088	5321
3	21288	6930.281769207398	5322
3	21292	6931.563334777514	5323
3	21296	6932.804665697531	5324
3	21300	6934.042919617038	5325
3	21304	6935.287141011894	5326
3	21308	6936.582378150636	5327
3	21312	6937.835424778349	5328
3	21316	6939.08982861655	5329
3	21320	6940.349775213123	5330
3	21324	6941.57199313309	5331
3	21328	6942.790229848442	5332
3	21332	6944.097117265373	5333
3	21336	6945.409902971858	5334
3	21340	6946.656717997352	5335
3	21344	6948.040100024974	5336
3	21348	6949.393842627047	5337
3	21352	6950.726378389581	5338
3	21356	6951.980060269565	5339
3	21360	6953.234461507869	5340
3	21364	6954.505444337229	5341
3	21368	6955.723612877748	5342
3	21372	6957.078478432151	5343
3	21376	6958.402895157133	5344
3	21380	6959.662293798197	5345
3	21384	6960.86770343686	5346
3	21388	6962.406495433288	5347
3	21392	6963.676200184543	5348
3	21396	6965.033717680666	5349
3	21400	6966.532883799361	5350
3	21404	6967.908001463254	5351
3	21408	6969.151310104798	5352
3	21412	6970.659048737065	5353
3	21416	6971.991352148543	5354
3	21420	6973.240593535679	5355
3	21424	6974.713479936151	5356
3	21428	6976.000249105449	5357
3	21432	6977.21259824485	5358
3	21436	6978.530881932942	5359
3	21440	6979.824825284683	5360
3	21444	6981.136745102267	5361
3	21448	6982.419561381786	5362
3	21452	6983.925187758321	5363
3	21456	6985.193227204882	5364
3	21460	6986.427243919052	5365
3	21464	6987.698794221105	5366
3	21468	6988.933235201199	5367
3	21472	6990.184115901252	5368
3	21476	6991.634224880478	5369
3	21480	6992.848807587478	5370
3	21484	6994.209404803444	5371
3	21488	6995.432992332577	5372
3	21492	6996.655727149006	5373
3	21496	6997.861529425971	5374
3	21500	6999.145937335336	5375
3	21504	7000.523784702499	5376
3	21508	7001.860733830554	5377
3	21512	7003.062266040749	5378
3	21516	7004.305812564051	5379
3	21520	7005.531584197577	5380
3	21524	7006.788567875694	5381
3	21528	7008.17337559641	5382
3	21532	7009.459035570921	5383
3	21536	7010.906757245476	5384
3	21540	7012.16970100116	5385
3	21544	7013.408780044089	5386
3	21548	7014.748633901594	5387
3	21552	7016.063442106138	5388
3	21556	7017.264037752173	5389
3	21560	7018.466722805335	5390
3	21564	7019.723750740175	5391
3	21568	7021.20290162418	5392
3	21572	7022.444087380896	5393
3	21576	7023.667882190357	5394
3	21580	7024.961828929748	5395
3	21584	7026.178091568809	5396
3	21588	7027.527683942388	5397
3	21592	7028.737305978351	5398
3	21596	7029.945226010504	5399
3	21600	7031.255753718543	5400
3	21604	7032.472958339337	5401
3	21608	7033.713340582271	5402
3	21612	7035.022727424686	5403
3	21616	7036.297570937078	5404
3	21620	7037.631665735469	5405
3	21624	7039.237621117673	5406
3	21628	7040.52634329867	5407
3	21632	7041.739706011056	5408
3	21636	7043.346010074273	5409
3	21640	7044.630236584842	5410
3	21644	7045.899443658522	5411
3	21648	7047.133887414466	5412
3	21652	7048.348539506534	5413
3	21656	7049.630778659201	5414
3	21660	7050.946707625449	5415
3	21664	7052.350512410085	5416
3	21668	7053.642661714649	5417
3	21672	7054.954563436495	5418
3	21676	7056.243826098999	5419
3	21680	7057.726798232241	5420
3	21684	7059.005731805533	5421
3	21688	7060.34172131315	5422
3	21692	7061.821566483594	5423
3	21696	7063.092960065364	5424
3	21700	7064.306789353533	5425
3	21704	7065.521723731642	5426
3	21708	7066.729325189094	5427
3	21712	7067.94027993296	5428
3	21716	7069.157017375411	5429
3	21720	7070.395527028324	5430
3	21724	7071.6236294845	5431
3	21728	7072.867586325152	5432
3	21732	7074.157467344946	5433
3	21736	7075.529350857699	5434
3	21740	7076.824135511715	5435
3	21744	7078.094172380662	5436
3	21748	7079.320647335077	5437
3	21752	7080.594216124251	5438
3	21756	7081.861398831258	5439
3	21760	7083.648486848533	5440
3	21764	7084.914276793369	5441
3	21768	7086.214776938098	5442
3	21772	7087.475127837597	5443
3	21776	7088.762628778753	5444
3	21780	7090.12536111483	5445
3	21784	7091.50154251346	5446
3	21788	7092.765350299133	5447
3	21792	7093.981843962293	5448
3	21796	7095.323876862017	5449
3	21800	7096.721082624389	5450
3	21804	7097.939292518405	5451
3	21808	7099.170177442954	5452
3	21812	7100.446099164073	5453
3	21816	7101.680587197516	5454
3	21820	7103.054373875403	5455
3	21824	7104.36743089728	5456
3	21828	7105.586997913229	5457
3	21832	7106.799913321243	5458
3	21836	7108.062447628397	5459
3	21840	7109.28222359543	5460
3	21844	7110.576148653625	5461
3	21848	7112.127164667955	5462
3	21852	7113.347593728623	5463
3	21856	7114.646164961116	5464
3	21860	7115.987537933357	5465
3	21864	7117.216837134188	5466
3	21868	7118.425066250935	5467
3	21872	7119.855071816917	5468
3	21876	7121.347721375339	5469
3	21880	7122.590731656014	5470
3	21884	7123.853884478952	5471
3	21888	7125.070693605939	5472
3	21892	7126.311659457277	5473
3	21896	7127.904485041878	5474
3	21900	7129.116906195987	5475
3	21904	7130.329218974545	5476
3	21908	7131.585887458231	5477
3	21912	7132.870983590477	5478
3	21916	7134.178806935283	5479
3	21920	7135.517466222503	5480
3	21924	7136.727391617609	5481
3	21928	7138.195327092298	5482
3	21932	7139.431894207107	5483
3	21936	7140.643551071847	5484
3	21940	7142.024350678188	5485
3	21944	7143.299387050198	5486
3	21948	7144.603284037613	5487
3	21952	7145.817500012298	5488
3	21956	7147.040614183414	5489
3	21960	7148.3884759183	5490
3	21964	7149.606019624941	5491
3	21968	7150.828871973477	5492
3	21972	7152.263719201104	5493
3	21976	7153.48942870233	5494
3	21980	7154.723258923374	5495
3	21984	7156.569825528288	5496
3	21988	7157.789609685745	5497
3	21992	7159.176165637542	5498
3	21996	7161.399413849959	5499
3	22000	7162.704549888173	5500
3	22004	7163.941539197785	5501
3	22008	7165.243848264948	5502
3	22012	7166.457171716085	5503
3	22016	7167.748318479123	5504
3	22020	7169.010263110465	5505
3	22024	7170.514139116354	5506
3	22028	7171.771116227472	5507
3	22032	7173.166838552031	5508
3	22036	7174.628297921907	5509
3	22040	7175.922644061799	5510
3	22044	7177.137054767568	5511
3	22048	7178.351745842392	5512
3	22052	7179.561301868307	5513
3	22056	7180.807308916685	5514
3	22060	7182.017067847406	5515
3	22064	7183.542918710384	5516
3	22068	7184.977559313173	5517
3	22072	7186.190517602641	5518
3	22076	7187.450186674279	5519
3	22080	7188.660629819438	5520
3	22084	7189.876953094852	5521
3	22088	7191.080098285182	5522
3	22092	7192.370196657099	5523
3	22096	7193.667611120884	5524
3	22100	7194.944748667931	5525
3	22104	7196.18261014739	5526
3	22108	7197.40472554364	5527
3	22112	7198.837748297095	5528
3	22116	7200.130139803938	5529
3	22120	7201.684720792229	5530
3	22124	7202.926307378603	5531
3	22128	7204.157049075583	5532
3	22132	7205.384278616761	5533
3	22136	7206.785608868992	5534
3	22140	7208.057025649275	5535
3	22144	7209.302388232198	5536
3	22148	7210.536869823426	5537
3	22152	7211.766120175211	5538
3	22156	7212.991241037168	5539
3	22160	7214.282095071302	5540
3	22164	7215.693890360774	5541
3	22168	7217.13769719747	5542
3	22172	7218.354629349614	5543
3	22176	7219.569144655957	5544
3	22180	7220.802077037695	5545
3	22184	7222.030944204693	5546
3	22188	7223.279742780541	5547
3	22192	7224.483517597482	5548
3	22196	7225.715488316476	5549
3	22200	7226.951474614937	5550
3	22204	7228.175136843005	5551
3	22208	7229.499688680103	5552
3	22212	7230.847155827343	5553
3	22216	7232.057996152419	5554
3	22220	7233.297897174507	5555
3	22224	7234.533445667989	5556
3	22228	7235.745381803531	5557
3	22232	7237.025893714441	5558
3	22236	7238.303741383197	5559
3	22240	7239.660345039401	5560
3	22244	7240.873754022358	5561
3	22248	7242.526623816915	5562
3	22252	7243.770865715083	5563
3	22256	7245.026408491393	5564
3	22260	7246.439968852934	5565
3	22264	7247.713737725909	5566
3	22268	7248.95980821613	5567
3	22272	7250.366103272132	5568
3	22276	7251.666208911129	5569
3	22280	7252.929429048808	5570
3	22284	7254.201712508053	5571
3	22288	7255.425774633666	5572
3	22292	7256.640592719162	5573
3	22296	7258.060839805947	5574
3	22300	7259.365556542271	5575
3	22304	7260.696253013367	5576
3	22308	7262.090071516545	5577
3	22312	7263.337383154115	5578
3	22316	7264.547167865422	5579
3	22320	7265.81403772722	5580
3	22324	7267.154150141087	5581
3	22328	7268.376694526853	5582
3	22332	7269.693881004662	5583
3	22336	7270.89853207302	5584
3	22340	7272.300017806017	5585
3	22344	7273.539069130525	5586
3	22348	7274.750060878005	5587
3	22352	7276.0505960663	5588
3	22356	7277.287080514888	5589
3	22360	7278.520309448636	5590
3	22364	7279.838821767285	5591

