version 2
run General-0-20230901-04:09:21-2683
attr configname General
attr datetime 20230901-04:09:21
attr experiment General
attr inifile omnetpp.ini
attr iterationvars ""
attr iterationvarsf ""
attr measurement ""
attr network Tictoc1
attr processid 2683
attr repetition 0
attr replication #0
attr resultdir results
attr runnumber 0
attr seedset 0
param Tictoc.tic.delayTime exponential(1s)
param Tictoc.toc.delayTime exponential(0.1s)
param Tictoc.*.lossProbability 0.2

vector 0 Tictoc1.tic transmissionSignal:vector ETV
attr source transmissionSignal
attr title "tx_t, vector"
vector 1 Tictoc1.toc receptionSignal:vector ETV
attr source receptionSignal
attr title "rx_t, vector"
vector 2 Tictoc1.toc transmissionSignal:vector ETV
attr source transmissionSignal
attr title "tx_t, vector"
vector 3 Tictoc1.tic receptionSignal:vector ETV
attr source receptionSignal
attr title "rx_t, vector"
0	1	0.548813502304	0
0	5	2.874406578109	1
0	9	5.166728891256	2
0	13	7.445449005254	3
0	17	9.700553853921	4
0	21	12.004369783987	5
0	23	13.004369783987	5
0	25	14.004369783987	5
0	27	15.004369783987	5
0	31	17.210208250896	6
0	35	19.44204386498	7
0	37	20.44204386498	7
0	39	21.44204386498	7
0	43	23.809264985012	8
0	47	26.074653241734	9
0	51	28.324540442636	10
0	55	30.705377369063	11
0	57	31.705377369063	11
0	59	32.705377369063	11
0	61	33.705377369063	11
0	65	35.907419927903	12
0	67	36.907419927903	12
0	71	39.422436920771	13
0	75	41.637560006137	14
0	79	44.041649227728	15
0	83	46.305820144996	16
0	87	48.667220352485	17
0	89	49.667220352485	17
0	93	52.018873949884	18
0	97	54.231461390828	19
0	101	56.533604578263	20
0	105	58.749077546313	21
0	109	61.238519594112	22
0	113	63.512302323288	23
0	115	64.512302323288	23
0	117	65.512302323288	23
0	119	66.512302323288	23
0	121	67.512302323288	23
0	123	68.512302323288	23
0	127	70.84583134175	24
0	129	71.84583134175	24
0	131	72.84583134175	24
0	135	75.060359144479	25
0	137	76.060359144479	25
0	139	77.060359144479	25
0	143	79.276572793424	26
0	147	81.501716986631	27
0	151	83.750572691562	28
0	155	86.183464028983	29
0	159	88.443238636665	30
0	161	89.443238636665	30
0	165	91.700691877339	31
0	169	94.020302657285	32
0	171	95.020302657285	32
0	173	96.020302657285	32
0	177	98.33019390404	33
1	2	0.648813502304	1
1	6	2.974406578109	2
1	10	5.266728891256	3
1	14	7.545449005254	4
1	18	9.800553853921	5
1	28	15.104369783987	6
1	32	17.310208250896	7
1	40	21.54204386498	8
1	44	23.909264985012	9
1	48	26.174653241734	10
1	52	28.424540442636	11
1	62	33.805377369063	12
1	68	37.007419927903	13
1	72	39.522436920771	14
1	76	41.737560006137	15
1	80	44.141649227728	16
1	84	46.405820144996	17
1	90	49.767220352485	18
1	94	52.118873949884	19
1	98	54.331461390828	20
1	102	56.633604578263	21
1	106	58.849077546313	22
1	110	61.338519594112	23
1	124	68.612302323288	24
1	132	72.94583134175	25
1	140	77.160359144479	26
1	144	79.376572793424	27
1	148	81.601716986631	28
1	152	83.850572691562	29
1	156	86.283464028983	30
1	162	89.543238636665	31
1	166	91.800691877339	32
1	174	96.120302657285	33
1	178	98.43019390404	34
2	3	0.774406578109	0
2	7	3.066728891256	0
2	11	5.345449005254	0
2	15	7.600553853921	0
2	19	9.904369783987	0
2	29	15.110208250896	0
2	33	17.34204386498	0
2	41	21.709264985012	0
2	45	23.974653241734	0
2	49	26.224540442636	0
2	53	28.605377369063	0
2	63	33.807419927903	0
2	69	37.322436920771	0
2	73	39.537560006137	0
2	77	41.941649227728	0
2	81	44.205820144996	0
2	85	46.567220352485	0
2	91	49.918873949884	0
2	95	52.131461390828	0
2	99	54.433604578263	0
2	103	56.649077546313	0
2	107	59.138519594112	0
2	111	61.412302323288	0
2	125	68.74583134175	0
2	133	72.960359144479	0
2	141	77.176572793424	0
2	145	79.401716986631	0
2	149	81.650572691562	0
2	153	84.083464028983	0
2	157	86.343238636665	0
2	163	89.600691877339	0
2	167	91.920302657285	0
2	175	96.23019390404	0
2	179	98.541253648609	0
3	4	0.874406578109	1
3	8	3.166728891256	2
3	12	5.445449005254	3
3	16	7.700553853921	4
3	20	10.004369783987	5
3	30	15.210208250896	6
3	34	17.44204386498	7
3	42	21.809264985012	8
3	46	24.074653241734	9
3	50	26.324540442636	10
3	54	28.705377369063	11
3	64	33.907419927903	12
3	70	37.422436920771	13
3	74	39.637560006137	14
3	78	42.041649227728	15
3	82	44.305820144996	16
3	86	46.667220352485	17
3	92	50.018873949884	18
3	96	52.231461390828	19
3	100	54.533604578263	20
3	104	56.749077546313	21
3	108	59.238519594112	22
3	112	61.512302323288	23
3	126	68.84583134175	24
3	134	73.060359144479	25
3	142	77.276572793424	26
3	146	79.501716986631	27
3	150	81.750572691562	28
3	154	84.183464028983	29
3	158	86.443238636665	30
3	164	89.700691877339	31
3	168	92.020302657285	32
3	176	96.33019390404	33
3	180	98.641253648609	34

