version 2
run General-0-20231001-06:02:08-14773
attr configname General
attr datetime 20231001-06:02:08
attr experiment General
attr inifile omnetpp.ini
attr iterationvars ""
attr iterationvarsf ""
attr measurement ""
attr network Multihop
attr processid 14773
attr repetition 0
attr replication #0
attr resultdir results
attr runnumber 0
attr seedset 0
param Multihop.node[*].delayTime exponential(5s)

vector 0 Multihop.node[0] txVector ETV
vector 1 Multihop.node[5] rxVector ETV
0	0	0	1
0	1	3.979372522829	2
0	7	8.472174465249	3
0	13	17.866994736263	4
0	19	19.632790431951	5
0	25	22.880022173205	6
0	31	25.374382218284	7
0	37	30.597444759824	8
0	43	31.353599028149	9
0	49	39.423609402612	10
0	55	45.79974791373	11
0	61	52.906571314199	12
0	67	53.937587724351	13
0	73	54.663977860812	14
0	79	55.921187521186	15
0	85	58.909917905278	16
0	90	59.432724034154	17
0	97	60.369854364243	18
0	103	65.0501621631	19
0	109	70.079517188933	20
0	115	75.119613416034	21
0	121	77.79493680145	22
0	127	79.857442951062	23
0	133	87.390619617425	24
0	134	87.458942509579	25
0	145	92.334452180361	26
0	148	92.62108681248	27
0	151	92.722037453211	28
0	163	112.179888067438	29
0	169	124.699446982864	30
0	175	134.7156495954	31
0	181	147.417172135194	32
0	182	147.464175888514	33
0	193	156.700814143523	34
0	199	160.72480114253	35
0	205	161.516508673683	36
0	211	163.218242364859	37
0	217	165.739961397798	38
0	223	176.847495890169	39
0	229	196.062528806387	40
0	235	198.71614128947	41
1	6	4.547147568604	1
1	12	9.008443080993	2
1	18	18.43098253243	3
1	24	20.187661400464	4
1	30	23.429852650484	5
1	36	25.943613374048	6
1	42	31.199178530551	7
1	48	31.894921460208	8
1	54	39.980746781475	9
1	60	46.323091055998	10
1	66	53.451741420498	11
1	72	54.462400259207	12
1	78	55.241978584581	13
1	84	56.476107564651	14
1	91	59.478224635476	15
1	96	59.958580474926	16
1	102	60.892915863025	17
1	108	65.640634228387	18
1	114	70.657104718909	19
1	120	75.646633327247	20
1	126	78.323321441661	21
1	132	80.422169805909	22
1	143	87.966754142562	23
1	144	88.05958399993	24
1	155	92.873461865426	25
1	161	93.16427824796	26
1	162	93.237269521369	27
1	168	112.711476301686	28
1	174	125.242893526795	29
1	180	135.258677822217	30
1	191	147.965158404023	31
1	192	147.992459870227	32
1	198	157.22514157572	33
1	204	161.273158196152	34
1	210	162.080493530491	35
1	216	163.771048604671	36
1	222	166.312504927019	37
1	228	177.395661151279	38
1	234	196.611706271018	39
1	240	199.304724834629	40

