version 2
run General-0-20231001-08:27:34-15886
attr configname General
attr datetime 20231001-08:27:34
attr experiment General
attr inifile omnetpp.ini
attr iterationvars ""
attr iterationvarsf ""
attr measurement ""
attr network Multihop
attr processid 15886
attr repetition 0
attr replication #0
attr resultdir results
attr runnumber 0
attr seedset 0
param Multihop.node[*].delayTime exponential(5s)

vector 0 Multihop.node[0] txVector ETV
vector 1 Multihop.node[5] rxVector ETV
0	0	0	1
0	1	3.979372522829	2
0	7	8.472174465249	3
0	13	17.866994736263	4
0	19	19.632790431951	5
0	25	22.880022173205	6
0	31	25.374382218284	7
0	37	30.597444759824	8
0	41	31.353599028149	9
0	49	39.379796813457	10
0	55	45.755935324575	11
0	61	52.862758725044	12
0	67	53.893775135196	13
0	73	54.620165271657	14
0	79	55.877374932031	15
0	85	58.866105316123	16
0	88	59.388911444999	17
0	97	64.683082102437	18
0	103	69.363389901294	19
0	109	74.392744927127	20
0	115	79.432841154228	21
0	121	82.108164539644	22
0	127	84.170670689256	23
0	133	91.703847355619	24
0	134	91.772170247773	25
0	145	96.647679918555	26
0	148	96.934314550674	27
0	149	97.035265191405	28
0	163	99.94965713574	29
0	169	112.469216051166	30
0	175	122.485418663702	31
0	181	135.186941203496	32
0	182	135.233944956816	33
0	193	144.470583211825	34
0	199	148.494570210832	35
0	205	149.286277741985	36
0	211	150.988011433161	37
0	217	153.5097304661	38
0	223	164.617264958471	39
0	229	183.832297874689	40
0	235	186.485910357772	41
0	241	188.364604569806	42
0	247	193.753778990488	43
0	253	196.265332981793	44
0	259	199.440971559947	45
1	6	4.818247751702	1
1	12	9.153517543966	2
1	18	18.686933717105	3
1	24	20.40714527452	4
1	30	23.629174559602	5
1	36	26.220537997105	6
1	44	31.556798108589	7
1	48	32.109964819211	8
1	54	40.165483707773	9
1	60	46.372651035916	10
1	66	53.58860925654	11
1	72	54.517837809474	12
1	78	55.5101688905	13
1	84	56.651975149354	14
1	92	59.620349026852	15
1	96	60.061913185839	16
1	102	65.29838959635	17
1	108	70.315750227721	18
1	114	75.280682577009	19
1	120	80.067940710293	20
1	126	82.7500877407	21
1	132	84.994304963491	22
1	143	92.584519981307	23
1	144	92.775377699526	24
1	155	97.315275094075	25
1	161	97.692026885882	26
1	162	97.762558210883	27
1	168	100.607598306973	28
1	174	113.186448770824	29
1	180	123.200559797788	30
1	191	135.862798790208	31
1	192	135.939438622803	32
1	198	145.092220372812	33
1	204	149.236355478941	34
1	210	150.106202026026	35
1	216	151.752042632217	36
1	222	154.372448112203	37
1	228	165.35809126402	38
1	234	184.578185197842	39
1	240	187.428828083568	40
1	246	189.158504061915	41
1	252	194.409365836773	42
1	258	196.934310746246	43

