version 2
run General-0-20231001-00:00:36-11919
attr configname General
attr datetime 20231001-00:00:36
attr experiment General
attr inifile omnetpp.ini
attr iterationvars ""
attr iterationvarsf ""
attr measurement ""
attr network Multihop
attr processid 11919
attr repetition 0
attr replication #0
attr resultdir results
attr runnumber 0
attr seedset 0
param Multihop.node[*].transmissionTime "uniform(1s, 2s)"
param Multihop.node[*].delayTime "uniform(0.01s, 0.2s)"
param Multihop.node[0].lossProbability 0.2
param Multihop.node[1].lossProbability 0.2
param Multihop.node[2].lossProbability 0.2
param Multihop.node[3].lossProbability 0.2
param Multihop.node[4].lossProbability 0.2
param Multihop.node[5].lossProbability 0.2

vector 0 Multihop.node[0] txVector ETV
vector 1 Multihop.node[1] rxVector ETV
vector 2 Multihop.node[1] txVector ETV
vector 3 Multihop.node[3] rxVector ETV
vector 4 Multihop.node[3] txVector ETV
vector 5 Multihop.node[4] rxVector ETV
vector 6 Multihop.node[4] txVector ETV
vector 7 Multihop.node[2] rxVector ETV
vector 8 Multihop.node[2] txVector ETV
vector 9 Multihop.node[5] rxVector ETV
vector 10 Multihop.node[5] txVector ETV
vector 11 Multihop.node[6] rxVector ETV
0	0	0	1
0	1	0.114274565438	2
0	3	0.236915042552	3
0	6	0.36963492442	4
0	9	0.470391295635	5
0	11	0.49388814679	6
0	19	0.685747626111	7
0	24	0.794898808465	8
0	27	0.830590261385	9
0	31	0.957807721129	10
0	34	1.03611422252	11
0	40	1.230377945554	12
0	45	1.422578306714	13
0	48	1.543129869834	14
0	50	1.671596789974	15
0	53	1.806299412452	16
0	54	1.834748653971	17
0	58	1.972743983871	18
0	62	2.097664632294	19
0	63	2.130501979566	20
0	66	2.231871751451	21
0	67	2.283067956753	22
0	72	2.40072223196	23
0	73	2.412500005292	24
0	76	2.447541599073	25
0	78	2.507840330293	26
0	80	2.521660764897	27
0	83	2.559484699918	28
0	86	2.624295222082	29
0	96	2.804542516049	30
0	105	2.95234082952	31
0	112	3.129246745835	32
0	117	3.323349481373	33
0	121	3.486526339814	34
0	124	3.671228036281	35
0	127	3.853111107691	36
1	2	0.232870607559	1
1	5	0.342670234521	2
1	10	0.486357036423	3
1	14	0.571302905896	4
1	15	0.595400455327	5
1	32	0.959369411598	6
1	36	1.063553045196	7
1	37	1.146702563835	8
1	47	1.527928953485	9
1	52	1.773083912667	10
1	61	2.086186436593	11
1	64	2.201176393188	12
1	71	2.386152105154	13
1	79	2.51919550847	14
1	81	2.525099343393	15
1	87	2.630091595218	16
1	89	2.665163741453	17
1	92	2.734481809382	18
1	102	2.911500510658	19
1	123	3.599052415063	20
1	126	3.77161086541	21
2	2	0.232870607559	1
2	5	0.342670234521	2
2	10	0.486357036423	3
2	14	0.571302905896	4
2	15	0.595400455327	5
2	32	0.959369411598	6
2	36	1.063553045196	7
2	37	1.146702563835	8
2	47	1.527928953485	9
2	52	1.773083912667	10
2	61	2.086186436593	11
2	64	2.201176393188	12
2	71	2.386152105154	13
2	79	2.51919550847	14
2	81	2.525099343393	15
2	87	2.630091595218	16
2	89	2.665163741453	17
2	92	2.734481809382	18
2	102	2.911500510658	19
2	123	3.599052415063	20
2	126	3.77161086541	21
3	4	0.342640671823	1
3	20	0.686468265636	2
3	28	0.897564980657	3
3	35	1.060415023856	4
3	41	1.250633689408	5
3	55	1.871835305504	6
3	56	1.873220558451	7
3	85	2.619242573875	8
3	95	2.766399007927	9
3	97	2.83953199686	10
3	108	3.014897157984	11
3	113	3.163500870074	12
4	4	0.342640671823	1
4	20	0.686468265636	2
4	28	0.897564980657	3
4	35	1.060415023856	4
4	41	1.250633689408	5
4	55	1.871835305504	6
4	56	1.873220558451	7
4	85	2.619242573875	8
4	95	2.766399007927	9
4	97	2.83953199686	10
4	108	3.014897157984	11
4	113	3.163500870074	12
5	7	0.443224518514	1
5	13	0.565589948213	2
5	22	0.708152732349	3
5	25	0.795943615763	4
5	51	1.741963406585	5
5	65	2.225102137821	6
5	68	2.322418765158	7
5	77	2.489987707295	8
5	88	2.638386922131	9
5	99	2.844361779614	10
5	101	2.87846982543	11
5	110	3.055475350216	12
5	111	3.12333604271	13
5	116	3.286187210001	14
6	7	0.443224518514	1
6	13	0.565589948213	2
6	22	0.708152732349	3
6	25	0.795943615763	4
6	51	1.741963406585	5
6	65	2.225102137821	6
6	68	2.322418765158	7
6	77	2.489987707295	8
6	88	2.638386922131	9
6	99	2.844361779614	10
6	101	2.87846982543	11
6	110	3.055475350216	12
6	111	3.12333604271	13
6	116	3.286187210001	14
7	8	0.44750625557	1
7	16	0.604231913057	2
7	18	0.681729968962	3
7	39	1.167342664839	4
7	49	1.63073172357	5
7	93	2.741487674853	6
7	94	2.75712152093	7
7	104	2.949875739515	8
8	8	0.44750625557	1
8	16	0.604231913057	2
8	18	0.681729968962	3
8	39	1.167342664839	4
8	49	1.63073172357	5
8	93	2.741487674853	6
8	94	2.75712152093	7
8	104	2.949875739515	8
9	12	0.551618847043	1
9	23	0.789541069158	2
9	26	0.814243556581	3
9	38	1.162777090917	4
9	44	1.360713881862	5
9	69	2.325765111836	6
9	74	2.423405268242	7
9	84	2.598035681293	8
9	91	2.728208482583	9
9	100	2.875277622031	10
9	103	2.942152569277	11
9	115	3.233926136564	12
9	119	3.389202869133	13
10	12	0.551618847043	1
10	23	0.789541069158	2
10	26	0.814243556581	3
10	38	1.162777090917	4
10	44	1.360713881862	5
10	69	2.325765111836	6
10	74	2.423405268242	7
10	84	2.598035681293	8
10	91	2.728208482583	9
10	100	2.875277622031	10
10	103	2.942152569277	11
10	115	3.233926136564	12
10	119	3.389202869133	13
11	17	0.672027769202	1
11	29	0.897944416214	2
11	30	0.916757975902	3
11	42	1.263168922481	4
11	46	1.471301309013	5
11	75	2.434344068247	6
11	82	2.526821809912	7
11	90	2.712145925386	8
11	98	2.842776668169	9
11	106	2.984601650835	10
11	109	3.046988926143	11
11	118	3.334949342713	12
11	122	3.490258995569	13

