version 2
run General-0-20231001-03:29:59-13187
attr configname General
attr datetime 20231001-03:29:59
attr experiment General
attr inifile omnetpp.ini
attr iterationvars ""
attr iterationvarsf ""
attr measurement ""
attr network Multihop
attr processid 13187
attr repetition 0
attr replication #0
attr resultdir results
attr runnumber 0
attr seedset 0
param Multihop.node[*].transmissionTime "uniform(1s, 2s)"
param Multihop.node[*].delayTime "uniform(0.01s, 0.2s)"
param Multihop.node[0].lossProbability 0.2
param Multihop.node[1].lossProbability 0.2
param Multihop.node[2].lossProbability 0.2
param Multihop.node[3].lossProbability 0.2
param Multihop.node[4].lossProbability 0.2
param Multihop.node[5].lossProbability 0.2

vector 0 Multihop.node[0] txVector ETV
vector 1 Multihop.node[1] rxVector ETV
vector 2 Multihop.node[1] txVector ETV
vector 3 Multihop.node[3] rxVector ETV
vector 4 Multihop.node[3] txVector ETV
vector 5 Multihop.node[4] rxVector ETV
vector 6 Multihop.node[4] txVector ETV
vector 7 Multihop.node[5] rxVector ETV
vector 8 Multihop.node[5] txVector ETV
vector 9 Multihop.node[6] rxVector ETV
vector 10 Multihop.node[2] rxVector ETV
vector 11 Multihop.node[2] txVector ETV
0	0	0	1
0	1	0.114274565438	2
0	7	0.236915042552	3
0	11	0.319768931603	4
0	12	0.393874202313	5
0	13	0.527026858859	6
0	15	0.606992750958	7
0	24	0.706978278561	8
0	27	0.864082678997	9
0	31	0.93566946978	10
0	35	1.062151527531	11
0	38	1.256415250565	12
0	41	1.40904561695	13
0	45	1.502379904495	14
0	50	1.560505308745	15
0	55	1.718390950273	16
0	58	1.913060500073	17
0	60	2.037981148496	18
0	62	2.055426828399	19
0	69	2.121693466265	20
0	74	2.23111059632	21
0	79	2.367918567807	22
0	81	2.409257255318	23
0	83	2.447081190339	24
0	90	2.511891712503	25
0	99	2.578404733318	26
0	109	2.645703948401	27
0	114	2.839806683939	28
0	118	2.932621018612	29
0	122	3.117322715079	30
0	124	3.223902650632	31
0	127	3.381922344086	32
0	128	3.469287170645	33
0	130	3.492428898789	34
0	132	3.512040640219	35
0	139	3.565881685124	36
0	144	3.726684248592	37
0	152	3.831689244414	38
0	155	3.877065915443	39
0	159	3.980253087795	40
0	163	4.072792247288	41
0	164	4.245168828071	42
0	169	4.396497391116	43
0	174	4.493140169562	44
0	182	4.601885296086	45
0	187	4.671486851599	46
0	192	4.762177089982	47
0	194	4.900398085551	48
0	196	4.943630771274	49
0	201	4.988453940794	50
0	204	5.016047210931	51
0	207	5.137097664676	52
0	210	5.202605695511	53
0	216	5.318179050587	54
0	225	5.443409388406	55
0	228	5.570805959882	56
0	236	5.729087023219	57
0	241	5.816249915842	58
0	242	5.902154710059	59
0	245	5.969502576174	60
0	249	6.08086105466	61
0	254	6.219569301308	62
0	259	6.280931602985	63
0	264	6.452932238456	64
0	270	6.588339812176	65
0	272	6.746386286633	66
0	274	6.89227024891	67
0	279	6.991474926926	68
0	282	7.150368040796	69
0	286	7.289832618086	70
0	287	7.335387487734	71
0	289	7.517144438528	72
0	291	7.613957608679	73
0	296	7.711092360415	74
0	298	7.726235467905	75
0	301	7.766737844163	76
0	308	7.820982284347	77
0	312	7.84892928834	78
0	323	7.9999545041	79
0	324	8.175157325393	80
0	325	8.271448181213	81
0	326	8.343521349688	82
0	329	8.3977427348	83
0	331	8.505226959434	84
0	335	8.618699226001	85
0	338	8.815210765243	86
0	342	8.902931043146	87
0	346	8.972354168765	88
0	354	9.158461196223	89
0	356	9.237461834124	90
0	362	9.387811539178	91
0	365	9.417933709284	92
0	380	9.602111842011	93
0	381	9.796025300497	94
0	386	9.994961450236	95
0	389	10.076843417432	96
0	390	10.270724405223	97
0	392	10.384632535596	98
0	397	10.507156315016	99
0	402	10.701470579364	100
0	403	10.716509864092	101
0	409	10.789876282966	102
0	416	10.873373441667	103
0	418	11.050428046788	104
0	421	11.114140979698	105
0	426	11.211582724181	106
0	433	11.339806625835	107
0	436	11.39295258033	108
0	437	11.406158198697	109
0	445	11.499884756416	110
0	454	11.587842052741	111
0	458	11.773270204809	112
0	461	11.816476886213	113
0	470	11.936697198731	114
0	473	12.036884115791	115
0	482	12.174674754058	116
0	486	12.243432498769	117
0	491	12.317553200914	118
0	499	12.483679728388	119
0	502	12.675496992794	120
0	504	12.713557252632	121
0	505	12.769518576634	122
0	510	12.861652058397	123
0	513	12.982498853727	124
0	518	13.170306948788	125
0	521	13.216228853454	126
0	525	13.320806465241	127
0	527	13.382318010024	128
0	530	13.483471246042	129
0	531	13.656324980489	130
0	534	13.688614938149	131
0	537	13.722145377741	132
0	550	13.814179801553	133
0	552	13.840374083119	134
0	554	13.870000732593	135
0	564	13.981634934985	136
0	566	14.043804194483	137
0	568	14.05854369307	138
0	569	14.166158042683	139
0	571	14.218463049934	140
0	572	14.238933433029	141
0	580	14.395889986151	142
0	581	14.436364759247	143
0	585	14.512904138491	144
0	595	14.633043507606	145
0	597	14.754275601274	146
0	598	14.879983438254	147
0	600	14.999995567049	148
0	605	15.140404355489	149
0	612	15.249349027903	150
0	617	15.381647864176	151
0	625	15.580107026718	152
0	630	15.683959014885	153
0	634	15.849385342879	154
0	639	15.940071314037	155
0	640	15.950579957067	156
0	648	16.006593889307	157
0	654	16.087471446569	158
0	656	16.112932073757	159
0	660	16.239084283865	160
0	661	16.329910612741	161
0	663	16.351985830913	162
0	668	16.40291149008	163
0	672	16.534029323234	164
0	676	16.642285405853	165
0	683	16.779320515996	166
0	685	16.921210506965	167
0	688	17.066197100283	168
0	691	17.100457942729	169
0	698	17.224498387176	170
0	704	17.369188922496	171
0	710	17.565041635371	172
0	714	17.721507458905	173
0	720	17.823925444662	174
0	729	17.9664075599	175
0	731	18.070905358295	176
0	735	18.154330364931	177
0	746	18.289220958827	178
0	751	18.410293547851	179
0	753	18.58435403028	180
0	757	18.640455122266	181
0	765	18.801411348464	182
0	772	18.937754641309	183
0	774	19.08642189324	184
0	776	19.14964350466	185
0	781	19.338084077554	186
0	782	19.362441724048	187
0	791	19.43023469985	188
0	794	19.446325267935	189
0	799	19.474883778291	190
0	804	19.597531029189	191
0	809	19.71660848911	192
0	816	19.837249238466	193
0	820	19.990364861335	194
0	823	20.148237332865	195
0	825	20.202390131126	196
0	827	20.278951917048	197
0	829	20.302775191927	198
0	834	20.379273833047	199
0	841	20.491076198	200
0	842	20.685225314639	201
0	843	20.745695499891	202
0	844	20.758262153523	203
0	853	20.846876255431	204
0	855	21.015001639487	205
0	856	21.036549489157	206
0	859	21.218466562995	207
0	860	21.228592763947	208
0	862	21.243909342581	209
0	868	21.424132468718	210
0	871	21.4707732276	211
0	876	21.608285187139	212
0	879	21.685587903146	213
0	881	21.714635735398	214
0	890	21.906190339813	215
0	897	22.025144688307	216
0	902	22.134336547029	217
0	904	22.271366206365	218
0	907	22.319574449623	219
0	913	22.399587732728	220
0	920	22.5188494576	221
0	927	22.604284366648	222
0	931	22.764129949409	223
0	933	22.77513980701	224
0	937	22.866080260974	225
0	943	22.988291482705	226
0	949	23.130784229795	227
0	954	23.267070691239	228
0	959	23.434210386631	229
0	963	23.516390227965	230
0	968	23.602242481053	231
0	971	23.74235432081	232
0	973	23.875325735263	233
0	974	23.891324908361	234
0	976	24.054762031359	235
0	978	24.084216121563	236
0	981	24.122408118804	237
0	989	24.230155985907	238
0	990	24.386691811371	239
0	991	24.449574284674	240
0	993	24.486009609626	241
0	997	24.614664129719	242
0	999	24.74469065048	243
0	1001	24.877493194921	244
0	1005	24.925673800511	245
0	1007	24.946593220108	246
0	1016	25.031763616397	247
0	1023	25.136767683357	248
0	1024	25.153558792439	249
0	1029	25.182159032775	250
0	1040	25.282091010627	251
0	1046	25.356364474953	252
0	1049	25.385408827856	253
0	1058	25.546545567329	254
0	1062	25.608544300949	255
0	1065	25.735350579203	256
0	1069	25.932316337142	257
0	1070	26.047319053596	258
0	1073	26.105047075106	259
0	1074	26.301711602761	260
0	1078	26.3877968239	261
0	1083	26.449344982913	262
0	1087	26.491440944393	263
0	1088	26.631853188338	264
0	1092	26.698072663598	265
0	1095	26.722939421822	266
0	1104	26.887451894792	267
0	1108	27.005696042784	268
0	1110	27.180291443165	269
0	1111	27.192882615035	270
0	1116	27.244656162537	271
0	1122	27.344079160046	272
0	1123	27.365884013326	273
0	1131	27.436309454086	274
0	1135	27.538867597784	275
0	1136	27.553653753338	276
0	1141	27.591958978037	277
0	1144	27.613373790552	278
0	1146	27.650558690986	279
0	1148	27.700705987793	280
0	1150	27.736198978739	281
0	1155	27.80296153666	282
0	1163	27.932156340487	283
0	1170	28.088766444926	284
0	1176	28.208331222725	285
0	1177	28.396487210567	286
0	1179	28.464473064159	287
0	1180	28.645877996109	288
0	1184	28.743035343728	289
0	1188	28.902290800222	290
0	1189	29.082927474129	291
0	1191	29.154007331055	292
0	1192	29.261813081579	293
0	1194	29.29849658996	294
0	1195	29.466287096577	295
0	1197	29.487289859568	296
0	1207	29.67903323898	297
0	1209	29.710360736327	298
0	1212	29.763631524427	299
0	1216	29.95025908591	300
0	1221	30.116058269646	301
0	1222	30.272725134795	302
0	1226	30.361211499151	303
0	1230	30.388524381079	304
0	1236	30.545323647022	305
0	1241	30.721659397971	306
0	1247	30.909267825355	307
0	1250	30.975934526905	308
0	1255	31.014052579653	309
0	1267	31.209996932194	310
0	1270	31.280346988962	311
0	1275	31.452633021293	312
0	1280	31.599493682092	313
0	1283	31.690399015561	314
0	1284	31.800967957081	315
0	1287	31.92925540619	316
0	1289	32.11318285844	317
0	1291	32.297825349306	318
0	1294	32.365826081582	319
0	1296	32.487095426726	320
0	1297	32.507925207976	321
0	1305	32.67511472042	322
0	1307	32.706437340724	323
0	1313	32.836034973276	324
0	1319	32.993862354167	325
0	1322	33.185039366959	326
0	1326	33.273913165233	327
0	1329	33.298731799696	328
0	1333	33.385831679522	329
0	1340	33.511574414968	330
0	1345	33.649967904335	331
0	1347	33.677609634131	332
0	1355	33.834114329749	333
0	1356	34.006125241357	334
0	1357	34.022352663083	335
0	1360	34.078742499228	336
0	1364	34.096161478287	337
0	1367	34.176290277405	338
0	1369	34.209754369465	339
0	1376	34.326546779132	340
0	1381	34.408306096258	341
0	1384	34.447725830426	342
0	1391	34.526101893979	343
0	1394	34.573342037353	344
0	1396	34.744625396571	345
0	1402	34.830033390576	346
0	1405	34.998604803405	347
0	1408	35.153370840552	348
0	1409	35.289163650279	349
0	1410	35.403963013559	350
0	1415	35.496904167673	351
0	1418	35.536244998023	352
0	1423	35.67878717358	353
0	1431	35.815319558166	354
0	1432	35.878457524225	355
0	1433	35.945339526302	356
0	1438	36.031433002395	357
0	1443	36.144778086595	358
0	1444	36.173383296298	359
0	1450	36.331549629861	360
0	1451	36.343996309192	361
0	1458	36.406825854197	362
0	1466	36.582939581355	363
0	1468	36.776603398908	364
0	1473	36.875092394692	365
0	1476	37.051312443253	366
0	1478	37.080556449587	367
0	1487	37.187914061858	368
0	1489	37.231216411933	369
0	1490	37.27959003391	370
0	1493	37.421397467857	371
0	1497	37.471807124899	372
0	1499	37.658531134036	373
0	1502	37.815468587345	374
0	1504	37.96896411835	375
0	1507	38.046652751581	376
0	1511	38.122670088689	377
0	1521	38.320122903238	378
0	1522	38.345993715238	379
0	1524	38.483725553034	380
0	1526	38.520498408191	381
0	1532	38.657029176548	382
0	1533	38.677556638068	383
0	1542	38.839928512934	384
0	1550	39.018617031006	385
0	1553	39.053271930127	386
0	1554	39.070392688843	387
0	1559	39.227312479405	388
0	1560	39.366766257756	389
0	1562	39.396507534461	390
0	1565	39.442376097736	391
0	1567	39.574811555047	392
0	1571	39.754917110146	393
0	1572	39.800089225175	394
0	1574	39.811267874709	395
0	1583	40.00039596326	396
0	1588	40.079610031269	397
0	1591	40.245581028337	398
0	1593	40.398336850134	399
0	1594	40.445850699241	400
0	1596	40.640175564608	401
0	1606	40.836446828816	402
0	1608	40.974044809464	403
0	1611	41.143298153234	404
0	1612	41.290325795577	405
0	1613	41.391546279499	406
0	1614	41.523880447326	407
0	1618	41.629217341435	408
0	1621	41.696769255479	409
0	1625	41.756217238212	410
0	1626	41.858736631701	411
0	1629	41.969789858994	412
0	1632	42.070015482291	413
0	1635	42.110843325896	414
0	1637	42.138980083958	415
0	1642	42.221116707948	416
0	1648	42.311274312687	417
0	1655	42.458549329083	418
0	1660	42.562930768513	419
0	1664	42.715259884397	420
0	1666	42.833210711341	421
0	1670	43.002968457282	422
0	1675	43.090617162105	423
0	1678	43.232202540985	424
0	1683	43.407260970645	425
0	1688	43.473369360752	426
0	1693	43.663545744218	427
0	1699	43.779356313733	428
0	1706	43.856878479022	429
0	1708	44.022766289519	430
0	1709	44.076613338735	431
0	1712	44.148538886482	432
0	1714	44.173128272808	433
0	1722	44.371061320681	434
0	1723	44.402896948253	435
0	1728	44.550470728233	436
0	1733	44.653536789239	437
0	1734	44.82460726336	438
0	1739	44.941273020274	439
0	1746	45.124825215552	440
0	1750	45.275203161855	441
0	1752	45.300491927139	442
0	1755	45.378133306635	443
0	1761	45.443025593477	444
0	1763	45.555412225354	445
0	1769	45.715424503264	446
0	1772	45.82154702	447
0	1773	45.981511263376	448
0	1774	46.137145859822	449
0	1779	46.256472620442	450
0	1783	46.448399482725	451
0	1791	46.588318238544	452
0	1794	46.664547229567	453
0	1798	46.775285108606	454
0	1804	46.955888682492	455
0	1807	47.139938354953	456
0	1817	47.332741111121	457
0	1823	47.525918769871	458
0	1827	47.682875157632	459
0	1831	47.75624156151	460
0	1837	47.852565067364	461
0	1846	48.0285644102	462
0	1850	48.118860324269	463
0	1853	48.281943769019	464
0	1860	48.42472402068	465
0	1861	48.452008195269	466
0	1868	48.648394281621	467
0	1871	48.824184423176	468
0	1872	48.888612704499	469
0	1877	48.99391508448	470
0	1881	49.04871963318	471
0	1884	49.113321638378	472
0	1888	49.282584776313	473
0	1891	49.341865801081	474
0	1893	49.375645049138	475
0	1899	49.47253776951	476
0	1907	49.628373262647	477
0	1910	49.657526121417	478
0	1915	49.689475343002	479
0	1917	49.868046942589	480
0	1919	49.985671207167	481
0	1922	50.048856650451	482
0	1928	50.14861813171	483
0	1936	50.241427962397	484
0	1938	50.341039892168	485
0	1941	50.419503352184	486
0	1943	50.435258149934	487
0	1945	50.492347493813	488
0	1951	50.63519837567	489
0	1953	50.801921941439	490
0	1955	50.900874185789	491
0	1962	51.056925681684	492
0	1965	51.144691790989	493
0	1968	51.341025710552	494
0	1972	51.474180343334	495
0	1977	51.633580949387	496
0	1979	51.810070718118	497
0	1981	51.835043165498	498
0	1986	51.956971853574	499
0	1987	52.002618149573	500
0	1992	52.148763471912	501
0	1994	52.218275820574	502
0	1996	52.233587342206	503
0	2000	52.259341277216	504
0	2015	52.349078421981	505
0	2021	52.479505193065	506
0	2023	52.633303418052	507
0	2025	52.77054354825	508
0	2032	52.944286840981	509
0	2037	53.117382486774	510
0	2038	53.244623826846	511
0	2042	53.344359000094	512
0	2053	53.536694092761	513
0	2059	53.684613881434	514
0	2062	53.864937884183	515
0	2067	54.007976600099	516
0	2068	54.199416201836	517
0	2073	54.299526892395	518
0	2075	54.477218228506	519
0	2077	54.675015433351	520
0	2081	54.759008970588	521
0	2087	54.833460926431	522
0	2089	54.97389018119	523
0	2091	55.013031325284	524
0	2094	55.078679081723	525
0	2102	55.237608053135	526
0	2110	55.302596041516	527
0	2115	55.428778251857	528
0	2121	55.506031947535	529
0	2123	55.534872471619	530
0	2127	55.559478339719	531
0	2131	55.627276468299	532
0	2141	55.820440341703	533
0	2146	55.894763373314	534
0	2151	55.984484575033	535
0	2160	56.151506352076	536
0	2162	56.269815258799	537
0	2166	56.346892173238	538
0	2168	56.361925892803	539
0	2172	56.436066355099	540
0	2175	56.509191444797	541
0	2180	56.705924081136	542
0	2183	56.819636270913	543
0	2184	56.849350737994	544
0	2188	56.920077596341	545
0	2195	57.021669348133	546
0	2197	57.188249255555	547
0	2198	57.286584468415	548
0	2203	57.412309537575	549
0	2207	57.504502899389	550
0	2210	57.539681192509	551
0	2214	57.588496746703	552
0	2219	57.712129305599	553
0	2222	57.739445222994	554
0	2224	57.755328086054	555
0	2232	57.803025367512	556
0	2235	57.820063839234	557
0	2240	57.892576909012	558
0	2246	57.943210439075	559
0	2254	58.01129256191	560
0	2255	58.118997055686	561
0	2258	58.266817061261	562
0	2263	58.459929343544	563
0	2270	58.603581123746	564
0	2275	58.781212693365	565
0	2283	58.937691309902	566
0	2286	59.055929951391	567
0	2294	59.226732946518	568
0	2296	59.310564895156	569
0	2302	59.463484951637	570
0	2304	59.486706502021	571
0	2308	59.54888470216	572
0	2313	59.604464187664	573
0	2315	59.628483714175	574
0	2324	59.768197290374	575
0	2332	59.914519577628	576
0	2335	60.006720885971	577
0	2340	60.140606430298	578
0	2343	60.176045107329	579
0	2348	60.303336824814	580
0	2349	60.488430858962	581
0	2350	60.499914799724	582
0	2357	60.557976651299	583
0	2365	60.729836481542	584
0	2370	60.892766347083	585
0	2372	61.033861420704	586
0	2374	61.21016498616	587
0	2375	61.400095633567	588
0	2379	61.557959381929	589
0	2381	61.572407325928	590
0	2385	61.695777153522	591
0	2387	61.724233472296	592
0	2394	61.885587587845	593
0	2397	62.01109558064	594
0	2398	62.025835249896	595
0	2404	62.096096895828	596
0	2409	62.212174914521	597
0	2414	62.325940136644	598
0	2417	62.48387114627	599
0	2419	62.589605171096	600
0	2422	62.614455213926	601
0	2427	62.739091257699	602
0	2428	62.865330094089	603
0	2429	62.93233615061	604
0	2433	63.124004619419	605
0	2435	63.307779130812	606
0	2436	63.334059447378	607
0	2444	63.482719576577	608
0	2447	63.588176762172	609
0	2449	63.661014505759	610
0	2451	63.723505636157	611
0	2454	63.839895644879	612
0	2462	64.007802485157	613
0	2464	64.062194986722	614
0	2469	64.245176224954	615
0	2470	64.333330328892	616
0	2471	64.48536983882	617
0	2473	64.572986571376	618
0	2478	64.687596565324	619
0	2490	64.861307731929	620
0	2491	65.023723437099	621
0	2492	65.085943872148	622
0	2495	65.245856578461	623
0	2501	65.440162474251	624
0	2506	65.634261989851	625
0	2508	65.74374725562	626
0	2509	65.827768335724	627
0	2514	65.899878195314	628
0	2516	65.921525324787	629
0	2520	65.969976062047	630
0	2525	66.01113689564	631
0	2529	66.040312899904	632
0	2531	66.124201785893	633
0	2532	66.159540237625	634
0	2537	66.278312046753	635
0	2542	66.403336238222	636
0	2548	66.48807941836	637
0	2549	66.555144242925	638
0	2550	66.58275807436	639
0	2554	66.667068026691	640
0	2558	66.830815949057	641
0	2560	66.863265951328	642
0	2564	66.980769696993	643
0	2567	67.05224784663	644
0	2574	67.153006820046	645
0	2584	67.323518484296	646
0	2586	67.459136750687	647
0	2588	67.476136880073	648
0	2592	67.511030868698	649
0	2594	67.528659432182	650
0	2599	67.591397608345	651
0	2605	67.739910554682	652
0	2608	67.862540900273	653
0	2609	68.038548602996	654
0	2612	68.085878668459	655
0	2615	68.21305057696	656
0	2617	68.35402998615	657
0	2623	68.523681685228	658
0	2625	68.555233832367	659
0	2629	68.61559523761	660
0	2630	68.797806105178	661
0	2639	68.949436293374	662
0	2641	68.978418826574	663
0	2643	69.00004634197	664
0	2651	69.184890714128	665
0	2660	69.366240535219	666
0	2662	69.399872988557	667
0	2675	69.571796519981	668
0	2678	69.643102483317	669
0	2683	69.747285468425	670
0	2687	69.945831391157	671
0	2688	70.13950096989	672
0	2692	70.223522077067	673
0	2705	70.420980318137	674
0	2709	70.494886941781	675
0	2711	70.512594883667	676
0	2715	70.540883661245	677
0	2721	70.656225119754	678
0	2723	70.722604163538	679
0	2727	70.822154431669	680
0	2729	70.847661070484	681
0	2737	70.993849062945	682
0	2741	71.102637623932	683
0	2742	71.276110409989	684
0	2743	71.438776264428	685
0	2747	71.59061332704	686
0	2748	71.673692992178	687
0	2751	71.738512743104	688
0	2753	71.752592121235	689
0	2760	71.845072540685	690
0	2763	72.003975796783	691
0	2769	72.099530985404	692
0	2773	72.186772295052	693
0	2776	72.292282556523	694
0	2783	72.460837258736	695
0	2787	72.615600788484	696
0	2792	72.713986802644	697
0	2794	72.879283705678	698
0	2797	73.035307376602	699
0	2800	73.176098762041	700
0	2802	73.333044484372	701
0	2806	73.387108152579	702
0	2809	73.509896361812	703
0	2811	73.589410422286	704
0	2818	73.697364783713	705
0	2821	73.752947374801	706
0	2834	73.900069329969	707
0	2836	74.003336463247	708
0	2838	74.029830101272	709
0	2840	74.044489405579	710
0	2845	74.073538464811	711
0	2848	74.167119283546	712
0	2849	74.329849902466	713
0	2853	74.371943349424	714
0	2860	74.514253211208	715
0	2868	74.653446036484	716
0	2872	74.746330604053	717
0	2875	74.820609122329	718
0	2876	74.836792713663	719
0	2883	75.013353567886	720
0	2888	75.196031723198	721
0	2891	75.270008777614	722
0	2896	75.388888772592	723
0	2904	75.536492206732	724
0	2907	75.584648820337	725
0	2908	75.598257487203	726
0	2911	75.685621994188	727
0	2913	75.825212223969	728
0	2915	75.85549806601	729
0	2916	75.876310291259	730
0	2920	75.896563184144	731
0	2923	75.940557116039	732
0	2929	76.089905881571	733
0	2933	76.12212301307	734
0	2937	76.167976326285	735
0	2948	76.357569022564	736
0	2951	76.466243933312	737
0	2953	76.661646633931	738
0	2959	76.746124605625	739
0	2967	76.82756789925	740
0	2971	76.880981693808	741
0	2977	77.047853862694	742
0	2982	77.188595500225	743
0	2984	77.211543612603	744
0	2992	77.295399544953	745
0	2994	77.371941668535	746
0	2998	77.508098092016	747
0	2999	77.689783348385	748
0	3000	77.786689249107	749
0	3004	77.85422396813	750
0	3009	77.928004645942	751
0	3011	77.973528411357	752
0	3013	78.148216037998	753
0	3015	78.334972151319	754
0	3017	78.514192050706	755
0	3018	78.681860765069	756
0	3021	78.87078040885	757
0	3023	78.942454409413	758
0	3027	78.995891894652	759
0	3034	79.067814879171	760
0	3038	79.117377479505	761
0	3048	79.248102625234	762
0	3053	79.41489263285	763
0	3060	79.591781056955	764
0	3061	79.790966466827	765
0	3064	79.932280954959	766
0	3070	80.022917682741	767
0	3073	80.16138429798	768
0	3078	80.245834034265	769
0	3088	80.366449598852	770
0	3092	80.52495608747	771
0	3099	80.628485709405	772
0	3100	80.677780501085	773
0	3105	80.803010079119	774
0	3107	80.842982881399	775
0	3114	80.894395319672	776
0	3121	81.02938191557	777
0	3122	81.070121357673	778
0	3124	81.151535652344	779
0	3126	81.172166722826	780
0	3130	81.349776531329	781
0	3133	81.537572899518	782
0	3134	81.698661383888	783
0	3139	81.817510875738	784
0	3140	81.973031779742	785
0	3143	82.079946741904	786
0	3145	82.112654709427	787
0	3149	82.147330061861	788
0	3153	82.318631060955	789
0	3155	82.422180513998	790
0	3157	82.453985411369	791
0	3159	82.527404258123	792
0	3164	82.670569979676	793
0	3165	82.706416819717	794
0	3170	82.864807400817	795
0	3171	83.004288950522	796
0	3172	83.098309173946	797
0	3174	83.125011916858	798
0	3177	83.160367782234	799
0	3185	83.230559777794	800
0	3188	83.387172288107	801
0	3194	83.539651930215	802
0	3198	83.572500786045	803
0	3202	83.597006140991	804
0	3205	83.618744164546	805
0	3212	83.754878842837	806
0	3214	83.872517315144	807
0	3217	83.948962630312	808
0	3219	84.010471329763	809
0	3223	84.092818540651	810
0	3233	84.224299061882	811
0	3235	84.273157310972	812
0	3241	84.381599301181	813
0	3242	84.436220500432	814
0	3244	84.456694160267	815
0	3250	84.50246226657	816
0	3260	84.677327161111	817
0	3266	84.816488540595	818
0	3268	84.907990855159	819
0	3273	85.087681811663	820
0	3274	85.104798289353	821
0	3280	85.225456524726	822
0	3289	85.359030956879	823
0	3293	85.486078353915	824
0	3298	85.565635873007	825
0	3308	85.747594587863	826
0	3309	85.767420943824	827
0	3315	85.912628617119	828
0	3317	86.042831649666	829
0	3321	86.157344222949	830
0	3322	86.170265454317	831
0	3331	86.302973019357	832
0	3332	86.331156341708	833
0	3339	86.470097583702	834
0	3347	86.626128990007	835
0	3349	86.640380465476	836
0	3356	86.808726377687	837
0	3362	86.896636167191	838
0	3368	87.018943640293	839
0	3372	87.090836983569	840
0	3375	87.253841752237	841
0	3380	87.418196305914	842
0	3382	87.458753297524	843
0	3386	87.563184005855	844
0	3389	87.750864085904	845
0	3394	87.899617899398	846
0	3395	88.077234869606	847
0	3398	88.112258926187	848
0	3402	88.307404724545	849
0	3404	88.320935705725	850
0	3409	88.39517491697	851
0	3415	88.512888799635	852
0	3416	88.579329633747	853
0	3421	88.749797146925	854
0	3429	88.911945462506	855
0	3431	88.958653572278	856
0	3436	89.144379101826	857
0	3437	89.195014587864	858
0	3438	89.357606072905	859
0	3442	89.417893331002	860
0	3448	89.606638596011	861
0	3450	89.758769124595	862
0	3451	89.895400004117	863
0	3452	89.907881011113	864
0	3458	90.104702561404	865
0	3463	90.253436301676	866
0	3465	90.321073961979	867
0	3467	90.36950077109	868
0	3470	90.501555124782	869
0	3474	90.584029791648	870
0	3479	90.719778500115	871
0	3480	90.732008441721	872
0	3489	90.910564320734	873
0	3495	91.033878986241	874
0	3496	91.184505952112	875
0	3500	91.34221164192	876
0	3505	91.474274108872	877
0	3510	91.607755176615	878
0	3511	91.625061533744	879
0	3516	91.749689589007	880
0	3519	91.938406797372	881
0	3520	91.971137398513	882
0	3524	92.041993301729	883
0	3529	92.20409676237	884
0	3533	92.274417949314	885
0	3536	92.325673759242	886
0	3538	92.438841144799	887
0	3540	92.45182535145	888
0	3545	92.547826655195	889
0	3547	92.718073243007	890
0	3548	92.771578967962	891
0	3549	92.806406757251	892
0	3550	92.92871227367	893
0	3552	93.081530532862	894
0	3553	93.239847198976	895
0	3555	93.377961752771	896
0	3558	93.524695943785	897
0	3559	93.541937961115	898
0	3565	93.71442565439	899
0	3568	93.843452423857	900
0	3570	93.885843473996	901
0	3571	93.979154056704	902
0	3573	94.041773721997	903
0	3576	94.204199480344	904
0	3581	94.336943748532	905
0	3585	94.488595058961	906
0	3589	94.571891398652	907
0	3591	94.73633416728	908
0	3594	94.885446807597	909
0	3597	94.938147377157	910
0	3602	94.976433275546	911
0	3622	95.138220910208	912
0	3627	95.195441605073	913
0	3636	95.253827658926	914
0	3642	95.372479010985	915
0	3643	95.465575775841	916
0	3651	95.643467581616	917
0	3656	95.801865867043	918
0	3660	95.886250605138	919
0	3664	95.947800773654	920
0	3666	95.974315064106	921
0	3679	96.163619122087	922
0	3681	96.349758596794	923
0	3682	96.437757966252	924
0	3689	96.626257505465	925
0	3691	96.686792433743	926
0	3698	96.872383218954	927
0	3699	96.886922004348	928
0	3705	96.99905047177	929
0	3708	97.051465209701	930
0	3713	97.194169773014	931
0	3717	97.306342458131	932
0	3719	97.499626717248	933
0	3722	97.540078098312	934
0	3724	97.590623994443	935
0	3727	97.653633595436	936
0	3729	97.753517872087	937
0	3733	97.857759050325	938
0	3734	97.885033573195	939
0	3738	98.033135240985	940
0	3742	98.116300394609	941
0	3744	98.274028561301	942
0	3746	98.348688828404	943
0	3750	98.401656055948	944
0	3753	98.438282655468	945
0	3758	98.600083918874	946
0	3761	98.717958807261	947
0	3763	98.893999855703	948
0	3765	98.916194888035	949
0	3777	99.101044081762	950
0	3778	99.11666311452	951
0	3783	99.231972858934	952
0	3784	99.249161324788	953
0	3793	99.381447960579	954
0	3795	99.401155016069	955
0	3798	99.444671663268	956
0	3807	99.603686120378	957
0	3808	99.666112994012	958
0	3810	99.864236656335	959
0	3815	99.942149124675	960
0	3818	99.978492331308	961
0	3823	100.150350277816	962
0	3825	100.26266829922	963
0	3826	100.347106141724	964
0	3827	100.529190060146	965
0	3828	100.544193646499	966
0	3829	100.569911109238	967
0	3830	100.735722953352	968
0	3833	100.78108251297	969
0	3839	100.978146867415	970
0	3848	101.114387612609	971
0	3851	101.286553110455	972
0	3855	101.354448804534	973
0	3857	101.377591308167	974
0	3859	101.479507944915	975
0	3861	101.549948152348	976
0	3863	101.577641829911	977
0	3866	101.602483061629	978
0	3874	101.787883658665	979
0	3877	101.912559443575	980
0	3878	101.993010382427	981
0	3881	102.177566123542	982
0	3887	102.260725489531	983
0	3895	102.438724614095	984
0	3897	102.479441767414	985
0	3903	102.675633014338	986
0	3910	102.836745921613	987
0	3912	102.883703624983	988
0	3914	102.91136617155	989
0	3927	103.069324049947	990
0	3932	103.127803699397	991
0	3939	103.298263254412	992
0	3941	103.32497929455	993
0	3945	103.499952569543	994
0	3949	103.688193896126	995
0	3956	103.873572232336	996
0	3957	104.001605914938	997
0	3961	104.167139182824	998
0	3963	104.365691683146	999
0	3967	104.423394996417	1000
0	3973	104.464255074221	1001
0	3978	104.497302029762	1002
0	3981	104.527112329503	1003
0	3989	104.710157977164	1004
0	3991	104.76402965654	1005
0	3996	104.853929626263	1006
0	3997	104.871885283453	1007
0	3999	104.926616531896	1008
0	4002	104.978430040131	1009
0	4004	105.005400912642	1010
0	4010	105.156687202732	1011
0	4011	105.168162760869	1012
0	4018	105.232887857807	1013
0	4022	105.297204086053	1014
0	4026	105.320736352903	1015
0	4037	105.439528321472	1016
0	4038	105.468100578023	1017
0	4043	105.582045170536	1018
0	4044	105.60577223868	1019
0	4047	105.643284802249	1020
0	4050	105.653818122331	1021
0	4067	105.774488100634	1022
0	4069	105.864228448527	1023
0	4070	106.029784598957	1024
0	4074	106.225047775431	1025
0	4076	106.271313888399	1026
0	4085	106.398745824563	1027
0	4088	106.440192278639	1028
0	4090	106.461675670351	1029
0	4095	106.52045942696	1030
0	4101	106.655393999975	1031
0	4103	106.676238057876	1032
0	4108	106.830586860782	1033
0	4111	106.862254017986	1034
0	4117	107.024008928736	1035
0	4119	107.108240889167	1036
0	4120	107.299076635251	1037
0	4124	107.483612480981	1038
0	4125	107.6770556758	1039
0	4129	107.87659969688	1040
0	4134	107.956130705041	1041
0	4138	108.033708808658	1042
0	4143	108.230326171185	1043
0	4145	108.34089377513	1044
0	4147	108.45856288412	1045
0	4149	108.59863651744	1046
0	4151	108.624154430662	1047
0	4157	108.689085048648	1048
0	4158	108.699583771612	1049
0	4170	108.801220119774	1050
0	4179	108.997782815014	1051
0	4183	109.092633636022	1052
0	4190	109.256357177243	1053
0	4196	109.402805706678	1054
0	4198	109.585932259963	1055
0	4201	109.705620210281	1056
0	4202	109.723465149226	1057
0	4207	109.805974209274	1058
0	4209	109.866754946471	1059
0	4212	110.003239023089	1060
0	4217	110.100717972642	1061
0	4227	110.242005400499	1062
0	4228	110.283281153293	1063
0	4235	110.343324508899	1064
0	4239	110.454359554447	1065
0	4245	110.589890809023	1066
0	4247	110.646969342505	1067
0	4248	110.800630557603	1068
0	4251	110.853197092003	1069
0	4254	110.875761614066	1070
0	4259	111.023353590256	1071
0	4261	111.066904357689	1072
0	4269	111.203773994754	1073
0	4272	111.365784095142	1074
0	4277	111.453328884081	1075
0	4285	111.616936982104	1076
0	4287	111.654068766672	1077
0	4293	111.780052985419	1078
0	4296	111.958564560695	1079
0	4297	111.975924321413	1080
0	4301	112.021135338386	1081
0	4309	112.200051794757	1082
0	4314	112.374207738293	1083
0	4318	112.423720111579	1084
0	4322	112.589533062037	1085
0	4323	112.627790742933	1086
0	4326	112.667324798428	1087
0	4333	112.773925439007	1088
0	4338	112.879310098993	1089
0	4346	112.97490201642	1090
0	4356	113.135309395194	1091
0	4361	113.21304601266	1092
0	4363	113.379869787448	1093
0	4368	113.480455192353	1094
0	4371	113.678013235498	1095
0	4373	113.704091181147	1096
0	4377	113.774205654966	1097
0	4379	113.801949078005	1098
0	4384	113.901067180391	1099
0	4391	114.04557876589	1100
0	4398	114.105583492101	1101
0	4404	114.285833419767	1102
0	4407	114.426353110348	1103
0	4411	114.565197605773	1104
0	4412	114.58389430289	1105
0	4417	114.643947135211	1106
0	4427	114.770413124015	1107
0	4430	114.908677932856	1108
0	4433	114.983212190469	1109
0	4440	115.10389123235	1110
0	4446	115.251278911597	1111
0	4451	115.419829378215	1112
0	4452	115.436401390723	1113
0	4461	115.544972474639	1114
0	4462	115.639405391557	1115
0	4468	115.824874835562	1116
0	4470	115.885240465517	1117
0	4471	115.898324860086	1118
0	4473	115.960088040795	1119
0	4475	116.094950947299	1120
0	4480	116.233138143093	1121
0	4481	116.300347040956	1122
0	4485	116.365926869732	1123
0	4489	116.499445210671	1124
0	4490	116.651613882565	1125
0	4492	116.694222575446	1126
0	4493	116.868611720653	1127
0	4499	116.935546251472	1128
0	4505	117.024644344795	1129
0	4508	117.046254489016	1130
0	4513	117.065855737412	1131
0	4520	117.207185607478	1132
0	4523	117.235234039905	1133
0	4531	117.36904916505	1134
0	4539	117.543252365507	1135
0	4545	117.647587000746	1136
0	4550	117.730682901032	1137
0	4551	117.872688367492	1138
0	4559	118.062318195539	1139
0	4562	118.152646091032	1140
0	4565	118.248329550669	1141
0	4566	118.37489079912	1142
0	4568	118.399794820897	1143
0	4570	118.445602519653	1144
0	4573	118.460320981076	1145
0	4581	118.54356069401	1146
0	4592	118.65132554127	1147
0	4597	118.70691985923	1148
0	4599	118.742465244568	1149
0	4603	118.900110866934	1150
0	4607	119.019422343386	1151
0	4611	119.172944110517	1152
0	4614	119.297765842682	1153
0	4616	119.317245410701	1154
0	4622	119.486576197778	1155
0	4627	119.626232576596	1156
0	4632	119.74374048796	1157
0	4634	119.784094353602	1158
0	4644	119.96031490298	1159
0	4650	120.11928908173	1160
0	4653	120.155975931217	1161
0	4660	120.241229147522	1162
0	4664	120.398165804771	1163
0	4665	120.413994088489	1164
0	4672	120.486604843342	1165
0	4683	120.649061610854	1166
0	4688	120.72795522375	1167
0	4691	120.750161708325	1168
0	4694	120.7852911559	1169
0	4701	120.913989911824	1170
0	4704	121.070072306953	1171
0	4706	121.090766361167	1172
0	4713	121.223889523251	1173
0	4720	121.369633480562	1174
0	4725	121.485848407175	1175
0	4727	121.616057142641	1176
0	4732	121.813378560683	1177
0	4733	121.831572409172	1178
0	4739	121.928762435624	1179
0	4744	122.055971114602	1180
0	4745	122.193026934284	1181
0	4751	122.349196909463	1182
0	4754	122.398189717666	1183
0	4761	122.542966023709	1184
0	4762	122.673778231728	1185
0	4765	122.721834897317	1186
0	4775	122.832426465156	1187
0	4780	122.980837370807	1188
0	4784	123.037308720979	1189
0	4785	123.130782208627	1190
0	4786	123.146911726566	1191
0	4794	123.248814083212	1192
0	4797	123.27590875925	1193
0	4806	123.380943125402	1194
0	4812	123.444468246151	1195
0	4817	123.545311090054	1196
0	4822	123.715576253903	1197
0	4827	123.903092922577	1198
0	4828	124.01020154837	1199
0	4831	124.210166319226	1200
0	4834	124.262333809402	1201
0	4837	124.277034216883	1202
0	4840	124.301572028942	1203
0	4851	124.485190193032	1204
0	4854	124.580508536113	1205
0	4860	124.712177717412	1206
0	4861	124.837786836187	1207
0	4866	124.94754473731	1208
0	4869	124.994830827944	1209
0	4870	125.006708944114	1210
0	4879	125.145640627111	1211
0	4883	125.239645267453	1212
0	4886	125.294005981135	1213
0	4888	125.35258688782	1214
0	4889	125.538599414752	1215
0	4892	125.589739727512	1216
0	4897	125.766030760569	1217
0	4898	125.938733002195	1218
0	4905	126.059292477338	1219
0	4910	126.104630506629	1220
0	4916	126.184686251009	1221
0	4924	126.270481859689	1222
0	4934	126.396329305662	1223
0	4938	126.439314950575	1224
0	4939	126.620250940198	1225
0	4942	126.77879481911	1226
0	4949	126.957228630621	1227
0	4951	127.050668961534	1228
0	4952	127.065184906409	1229
0	4955	127.177067254274	1230
0	4959	127.265864090284	1231
0	4964	127.331775113568	1232
0	4967	127.527167579236	1233
0	4969	127.561470117997	1234
0	4972	127.606120743642	1235
0	4976	127.641433187073	1236
0	4989	127.822690857727	1237
0	4993	127.941827501395	1238
0	4999	128.048169309971	1239
0	5001	128.150008322258	1240
0	5007	128.33337700246	1241
0	5012	128.529664815242	1242
0	5014	128.620692498362	1243
0	5015	128.81499682716	1244
0	5020	128.981781467711	1245
0	5024	129.114353318102	1246
0	5025	129.181815275463	1247
0	5029	129.369674552224	1248
0	5032	129.469463680574	1249
0	5039	129.599066058385	1250
0	5048	129.71132882582	1251
0	5054	129.829710003431	1252
0	5056	129.851556433982	1253
0	5063	129.916585269401	1254
0	5065	129.93314617012	1255
0	5074	130.014081849952	1256
0	5079	130.070474164875	1257
0	5083	130.144865056731	1258
0	5087	130.328445050924	1259
0	5091	130.387771858077	1260
0	5098	130.498294572665	1261
0	5104	130.627605578988	1262
0	5105	130.813957271199	1263
0	5110	130.941853650394	1264
0	5112	131.085712028879	1265
0	5113	131.278499228551	1266
0	5117	131.351204359666	1267
0	5119	131.378258325052	1268
0	5129	131.492867718825	1269
0	5134	131.62248922131	1270
0	5139	131.711514765711	1271
0	5144	131.84445729468	1272
0	5149	132.001216809002	1273
0	5154	132.181713690373	1274
0	5155	132.230952241625	1275
0	5157	132.299194282994	1276
0	5160	132.498259876494	1277
0	5162	132.56548562242	1278
0	5171	132.749347278828	1279
0	5172	132.777760943096	1280
0	5178	132.884234681996	1281
0	5185	133.022934231621	1282
0	5192	133.180865957325	1283
0	5195	133.353515074237	1284
0	5202	133.526177368446	1285
0	5203	133.623261204881	1286
0	5205	133.799322349504	1287
0	5210	133.942171430439	1288
0	5211	134.140878762342	1289
0	5213	134.178901663427	1290
0	5218	134.334850171725	1291
0	5221	134.371759825358	1292
0	5228	134.413724294645	1293
0	5233	134.460029380957	1294
0	5236	134.498608673918	1295
0	5239	134.51384991846	1296
0	5245	134.580894613843	1297
0	5252	134.675696564887	1298
0	5254	134.762548523438	1299
0	5256	134.806628141252	1300
0	5261	134.90807166409	1301
0	5264	135.013220569529	1302
0	5265	135.155134937484	1303
0	5270	135.229751414275	1304
0	5279	135.365176897855	1305
0	5280	135.444406905813	1306
0	5284	135.559080305433	1307
0	5288	135.603935235984	1308
0	5290	135.712291078121	1309
0	5295	135.831862841116	1310
0	5297	136.030241408053	1311
0	5302	136.179944137389	1312
0	5303	136.190362179191	1313
0	5310	136.276428879236	1314
0	5311	136.345911023507	1315
0	5313	136.375689539036	1316
0	5319	136.55158445314	1317
0	5320	136.585480620258	1318
0	5324	136.672590223425	1319
0	5330	136.709678567867	1320
0	5333	136.815615697825	1321
0	5338	136.906780703285	1322
0	5339	136.975734967399	1323
0	5341	137.1358244611	1324
0	5346	137.255558719614	1325
0	5350	137.410927845684	1326
0	5356	137.527924068244	1327
0	5358	137.594669576643	1328
0	5360	137.771630528878	1329
0	5362	137.798608373845	1330
0	5365	137.816863099771	1331
0	5369	137.833908127538	1332
0	5372	137.847908957699	1333
0	5374	137.945287729819	1334
0	5377	138.011026004628	1335
0	5380	138.051443111688	1336
0	5387	138.194021921073	1337
0	5388	138.204412705033	1338
0	5390	138.242802203403	1339
0	5391	138.396844832581	1340
0	5393	138.517579793502	1341
0	5395	138.579593428632	1342
0	5400	138.767810973758	1343
0	5401	138.852296839913	1344
0	5406	138.945419725743	1345
0	5408	139.120655501603	1346
0	5411	139.157585568514	1347
0	5418	139.269899286816	1348
0	5424	139.467899245147	1349
0	5425	139.591919273795	1350
0	5428	139.717715599072	1351
0	5429	139.857192638289	1352
0	5433	139.912811923987	1353
0	5438	140.098682177172	1354
0	5443	140.164256572836	1355
0	5445	140.358448699388	1356
0	5446	140.393873222483	1357
0	5451	140.504710260291	1358
0	5457	140.659495073784	1359
0	5458	140.740232266603	1360
0	5460	140.903894971705	1361
0	5461	141.073985523605	1362
0	5466	141.250042108237	1363
0	5472	141.449216408532	1364
0	5476	141.576500600146	1365
0	5477	141.760124164347	1366
0	5479	141.895944578652	1367
0	5485	141.993951335326	1368
0	5488	142.020552243036	1369
0	5494	142.111587603718	1370
0	5495	142.121749281811	1371
0	5502	142.180882974414	1372
0	5509	142.284257215422	1373
0	5513	142.460538655508	1374
0	5518	142.606057338477	1375
0	5521	142.777401578184	1376
0	5522	142.95944957461	1377
0	5526	143.099114859076	1378
0	5528	143.15454826209	1379
0	5530	143.177466682661	1380
0	5534	143.223251958945	1381
0	5541	143.371168482335	1382
0	5546	143.461141388415	1383
0	5547	143.628887297379	1384
0	5548	143.647559117755	1385
0	5555	143.813325568732	1386
0	5559	143.866295564059	1387
0	5561	143.932088751188	1388
0	5566	144.079488950801	1389
0	5567	144.104835809237	1390
0	5573	144.157495344501	1391
0	5574	144.176330732942	1392
0	5578	144.275768237625	1393
0	5581	144.345567271441	1394
0	5584	144.476389869067	1395
0	5585	144.614741221023	1396
0	5590	144.782417037989	1397
0	5591	144.974327729756	1398
0	5596	145.173409440687	1399
0	5598	145.193084426277	1400
0	5604	145.31132945531	1401
0	5609	145.396305973858	1402
0	5611	145.5048254256	1403
0	5617	145.650698227515	1404
0	5623	145.849483012723	1405
0	5627	146.048658904783	1406
0	5628	146.071758191027	1407
0	5636	146.18423636914	1408
0	5640	146.308948623843	1409
0	5647	146.482943287869	1410
0	5648	146.65812338437	1411
0	5651	146.698028595814	1412
0	5657	146.763086415633	1413
0	5662	146.889599130814	1414
0	5665	147.035212480024	1415
0	5669	147.087761046082	1416
0	5672	147.169691721377	1417
0	5673	147.200369247353	1418
0	5678	147.354196301244	1419
0	5681	147.432133208636	1420
0	5685	147.448297332231	1421
0	5694	147.535328742127	1422
0	5696	147.589268664006	1423
0	5699	147.646246727554	1424
0	5705	147.730275064828	1425
0	5706	147.915099521959	1426
0	5712	148.0442510128	1427
0	5713	148.106883875872	1428
0	5721	148.260338677778	1429
0	5723	148.454169456305	1430
0	5725	148.532476829226	1431
0	5729	148.593960314887	1432
0	5739	148.707702174264	1433
0	5741	148.776594951167	1434
0	5748	148.961719239075	1435
0	5750	148.98533683803	1436
0	5762	149.158012922805	1437
0	5770	149.291971160889	1438
0	5776	149.348822432778	1439
0	5779	149.4725779891	1440
0	5783	149.550586714915	1441
0	5790	149.738143852437	1442
0	5792	149.76483289286	1443
0	5797	149.850502155223	1444
0	5802	150.004184112949	1445
0	5807	150.093936053097	1446
0	5811	150.185088428172	1447
0	5817	150.266796579302	1448
0	5825	150.351521478336	1449
0	5830	150.454607357931	1450
0	5836	150.606303115383	1451
0	5844	150.744111617015	1452
0	5850	150.90349233799	1453
0	5853	151.036163345558	1454
0	5858	151.220138906528	1455
0	5863	151.300887983131	1456
0	5864	151.388441831136	1457
0	5867	151.555535250669	1458
0	5871	151.720346711375	1459
0	5876	151.839635811806	1460
0	5877	151.950969282695	1461
0	5884	152.087545194467	1462
0	5890	152.286964971853	1463
0	5892	152.320370790315	1464
0	5893	152.339619317326	1465
0	5897	152.357401097402	1466
0	5902	152.544978776226	1467
0	5907	152.687941096519	1468
0	5908	152.865687996175	1469
0	5913	152.947435330469	1470
0	5916	153.000502908549	1471
0	5920	153.095315966825	1472
0	5921	153.200729861951	1473
0	5922	153.28126277101	1474
0	5926	153.455780843988	1475
0	5936	153.605613057032	1476
0	5941	153.669413926327	1477
0	5949	153.798904499014	1478
0	5955	153.972012400674	1479
0	5960	154.063779934873	1480
0	5961	154.078243300531	1481
0	5967	154.200799784884	1482
0	5972	154.393002964303	1483
0	5977	154.539428207391	1484
0	5978	154.583667450839	1485
0	5985	154.690246741405	1486
0	5986	154.73051049217	1487
0	5987	154.754168538562	1488
0	5992	154.842696983969	1489
0	5997	154.913430723731	1490
0	6000	154.945990537548	1491
0	6002	154.968160447884	1492
0	6010	155.105945483298	1493
0	6015	155.260416404005	1494
0	6016	155.27417639603	1495
0	6020	155.405205561017	1496
0	6024	155.511291477104	1497
0	6033	155.616323357666	1498
0	6036	155.653949678972	1499
0	6038	155.6733716854	1500
0	6044	155.832407195201	1501
0	6051	155.943344044728	1502
0	6054	155.984761913031	1503
0	6063	156.110101152823	1504
0	6069	156.226379901254	1505
0	6074	156.413718866729	1506
0	6075	156.609523334852	1507
0	6079	156.804103818035	1508
0	6083	156.934066328702	1509
0	6085	157.114876656942	1510
0	6087	157.265703136939	1511
0	6094	157.434135790052	1512
0	6100	157.563302136573	1513
0	6101	157.711554649896	1514
0	6108	157.899545829776	1515
0	6111	158.029257512919	1516
0	6114	158.139249448755	1517
0	6115	158.149278020062	1518
0	6121	158.25449711469	1519
0	6124	158.294191664164	1520
0	6127	158.315383514515	1521
0	6130	158.412900906426	1522
0	6133	158.559896647592	1523
0	6136	158.624289203379	1524
0	6139	158.707627843541	1525
0	6146	158.836911735131	1526
0	6148	159.012997635814	1527
0	6152	159.102179143621	1528
0	6155	159.14482140049	1529
0	6158	159.329996812766	1530
0	6163	159.517310121985	1531
0	6167	159.694972630873	1532
0	6169	159.736245375407	1533
0	6170	159.854515319491	1534
0	6171	159.924567007498	1535
0	6176	160.037770716642	1536
0	6179	160.122331271547	1537
0	6182	160.177401029973	1538
0	6187	160.338290228881	1539
0	6188	160.361213827799	1540
0	6190	160.537491068654	1541
0	6195	160.611310921889	1542
0	6198	160.658207654967	1543
0	6205	160.711056840606	1544
0	6218	160.842315032717	1545
0	6220	160.86260027535	1546
0	6229	161.011772304943	1547
0	6243	161.142450393529	1548
0	6246	161.204397160492	1549
0	6255	161.404341753372	1550
0	6259	161.547027751531	1551
0	6260	161.710231417429	1552
0	6262	161.881265509657	1553
0	6265	161.929751229081	1554
0	6267	161.997121449718	1555
0	6268	162.037735672374	1556
0	6274	162.198380124955	1557
0	6275	162.311293542368	1558
0	6278	162.400400160718	1559
0	6283	162.501774480384	1560
0	6286	162.557522829088	1561
0	6293	162.752441514448	1562
0	6294	162.762579586885	1563
0	6298	162.950687138603	1564
0	6299	163.118081637746	1565
0	6301	163.207873488727	1566
0	6302	163.302444518913	1567
0	6304	163.475431728027	1568
0	6310	163.603076571097	1569
0	6311	163.630653934596	1570
0	6314	163.73598045122	1571
0	6318	163.819910247683	1572
0	6322	163.934742073739	1573
0	6323	164.083067072016	1574
0	6325	164.248995259612	1575
0	6329	164.437346133111	1576
0	6330	164.61930729569	1577
0	6331	164.643852898339	1578
0	6334	164.803627458206	1579
0	6338	164.91492996753	1580
0	6343	165.092380326421	1581
0	6344	165.213309839224	1582
0	6346	165.374629039011	1583
0	6349	165.413403527116	1584
0	6353	165.469112307875	1585
0	6358	165.634966522091	1586
0	6361	165.779254687786	1587
0	6364	165.826165189002	1588
0	6368	165.874636942678	1589
0	6374	166.032368086133	1590
0	6378	166.139224039995	1591
0	6383	166.329438378363	1592
0	6389	166.471130611269	1593
0	6390	166.488279802563	1594
0	6393	166.538694217295	1595
0	6400	166.685671573311	1596
0	6402	166.700507510704	1597
0	6410	166.764541424891	1598
0	6418	166.832759133334	1599
0	6420	166.869490121197	1600
0	6430	167.018399937557	1601
0	6435	167.112303853067	1602
0	6438	167.178355755014	1603
0	6443	167.297163008414	1604
0	6448	167.416749295394	1605
0	6450	167.554697620661	1606
0	6451	167.576230541348	1607
0	6453	167.745744811738	1608
0	6458	167.839488213052	1609
0	6465	167.883893397305	1610
0	6473	168.083236548767	1611
0	6474	168.194803606594	1612
0	6478	168.303049305269	1613
0	6481	168.387319834401	1614
0	6486	168.499804622574	1615
0	6494	168.64313116666	1616
0	6497	168.667210044447	1617
0	6503	168.786293082934	1618
0	6506	168.982762555369	1619
0	6510	169.056638875751	1620
0	6515	169.094034712739	1621
0	6518	169.220680356515	1622
0	6519	169.417798389045	1623
0	6521	169.509461081021	1624
0	6524	169.554861218135	1625
0	6529	169.631450592931	1626
0	6533	169.667873328109	1627
0	6540	169.723570687282	1628
0	6552	169.883786714869	1629
0	6554	169.943531747677	1630
0	6559	170.034983093899	1631
0	6565	170.161579840239	1632
0	6575	170.326645801491	1633
0	6579	170.507944119493	1634
0	6580	170.689248453839	1635
0	6587	170.867068994163	1636
0	6589	170.882727884712	1637
0	6593	170.912783448893	1638
0	6599	170.970822128387	1639
0	6602	170.986442120619	1640
0	6611	171.15470983049	1641
0	6616	171.332546144429	1642
0	6619	171.391879523509	1643
0	6621	171.541231067885	1644
0	6626	171.66199209957	1645
0	6628	171.817735341763	1646
0	6633	171.928312327975	1647
0	6639	172.044097882639	1648
0	6640	172.122738580473	1649
0	6641	172.170584816739	1650
0	6643	172.338809824946	1651
0	6645	172.454148025915	1652
0	6646	172.469048977689	1653
0	6651	172.538529966335	1654
0	6657	172.619225948703	1655
0	6666	172.767876818528	1656
0	6671	172.857060577598	1657
0	6674	172.946533214691	1658
0	6678	173.101672715276	1659
0	6681	173.134942883322	1660
0	6691	173.250732745511	1661
0	6692	173.26353780358	1662
0	6694	173.396409379594	1663
0	6696	173.479925809441	1664
0	6697	173.569073818246	1665
0	6698	173.652027940381	1666
0	6704	173.772991652471	1667
0	6708	173.881951448779	1668
0	6715	174.002972353561	1669
0	6716	174.163211645022	1670
0	6721	174.248808741163	1671
0	6729	174.338806919515	1672
0	6731	174.371179097503	1673
0	6735	174.565312718384	1674
0	6740	174.672327947428	1675
0	6744	174.835913216788	1676
0	6746	174.875901149022	1677
0	6749	174.968629715715	1678
0	6750	175.155513547433	1679
0	6753	175.21529757252	1680
0	6757	175.266938526219	1681
0	6760	175.319853879873	1682
0	6763	175.394188576865	1683
0	6768	175.452657259361	1684
0	6771	175.562605881945	1685
0	6773	175.745519492491	1686
0	6774	175.918074268841	1687
0	6781	176.043639012967	1688
0	6786	176.085082416225	1689
0	6800	176.249764988753	1690
0	6802	176.340386195916	1691
0	6806	176.430913420976	1692
0	6808	176.496304784154	1693
0	6810	176.642031639786	1694
0	6813	176.674193399599	1695
0	6817	176.765232869931	1696
0	6820	176.822135438539	1697
0	6822	176.841145893959	1698
0	6828	176.891560972877	1699
0	6835	176.942682033071	1700
0	6838	177.00395299873	1701
0	6841	177.149019065827	1702
0	6848	177.296766115536	1703
0	6852	177.417405572529	1704
0	6854	177.581015210161	1705
0	6855	177.600331951585	1706
0	6865	177.697927242541	1707
0	6877	177.896469351752	1708
0	6880	177.929931837891	1709
0	6888	178.126244802175	1710
0	6890	178.267348177156	1711
0	6893	178.350281355691	1712
0	6896	178.446744559987	1713
0	6898	178.509030377697	1714
0	6903	178.63798544544	1715
0	6906	178.832779087596	1716
0	6908	178.895653138505	1717
0	6914	179.074602948557	1718
0	6921	179.216357887028	1719
0	6927	179.351466091328	1720
0	6928	179.400426486036	1721
0	6935	179.526440111919	1722
0	6936	179.539384330985	1723
0	6944	179.732674597068	1724
0	6946	179.758786764344	1725
0	6953	179.856244287529	1726
0	6963	180.034682725918	1727
0	6968	180.165259218319	1728
0	6970	180.203155718144	1729
0	6975	180.237872402462	1730
0	6985	180.364533752656	1731
0	6986	180.558056395418	1732
0	6987	180.718707760822	1733
0	6990	180.843579854386	1734
0	6992	180.873277104504	1735
0	6994	180.913195203752	1736
0	6997	181.094261645493	1737
0	6999	181.183733098162	1738
0	7004	181.277648696527	1739
0	7006	181.31477701077	1740
0	7010	181.389847959962	1741
0	7012	181.40958884615	1742
0	7015	181.45202500856	1743
0	7019	181.485010990137	1744
0	7020	181.496878827782	1745
0	7026	181.526623271561	1746
0	7035	181.672401776842	1747
0	7040	181.73963451398	1748
0	7041	181.755585920538	1749
0	7048	181.820998987676	1750
0	7057	181.87293572501	1751
0	7060	181.894681929068	1752
0	7067	182.084740844262	1753
0	7070	182.142362112033	1754
0	7071	182.331046537606	1755
0	7074	182.480195919425	1756
0	7079	182.601490408905	1757
0	7080	182.695852607506	1758
0	7086	182.815069442623	1759
0	7087	182.965054937907	1760
0	7093	183.048853850934	1761
0	7095	183.117196481501	1762
0	7098	183.241804752858	1763
0	7103	183.357284854295	1764
0	7106	183.489870323521	1765
0	7112	183.623432766826	1766
0	7114	183.782277770029	1767
0	7117	183.817814916249	1768
0	7122	184.013842965644	1769
0	7126	184.095397504254	1770
0	7127	184.197703191459	1771
0	7129	184.25501640305	1772
0	7133	184.310632198118	1773
0	7134	184.332074940491	1774
0	7137	184.353023030797	1775
0	7144	184.521717092811	1776
0	7145	184.645197107486	1777
0	7148	184.685817727197	1778
0	7151	184.760842533332	1779
0	7153	184.779832833823	1780
0	7155	184.916522745711	1781
0	7158	184.950308716369	1782
0	7159	185.085236424559	1783
0	7164	185.229132673274	1784
0	7167	185.272538776614	1785
0	7176	185.454358793068	1786
0	7179	185.563900992914	1787
0	7181	185.62641709804	1788
0	7183	185.732466855281	1789
0	7189	185.861262526055	1790
0	7194	185.94596409477	1791
0	7199	186.044015446884	1792
0	7201	186.098575046339	1793
0	7206	186.17094115931	1794
0	7207	186.336843244733	1795
0	7212	186.536625663791	1796
0	7214	186.555305949162	1797
0	7218	186.687055632282	1798
0	7223	186.884497809714	1799
0	7224	187.032381589994	1800
0	7225	187.062858427373	1801
0	7226	187.168198923635	1802
0	7234	187.347959506091	1803
0	7237	187.409812015172	1804
0	7247	187.554529679823	1805
0	7251	187.665624915529	1806
0	7255	187.849439374118	1807
0	7260	188.007709839135	1808
0	7261	188.059178125535	1809
0	7266	188.141550940522	1810
0	7269	188.199396338335	1811
0	7273	188.317698261366	1812
0	7278	188.401351684423	1813
0	7283	188.553182578557	1814
0	7284	188.566931433622	1815
0	7285	188.725411036969	1816
0	7289	188.777118765537	1817
0	7296	188.881217662685	1818
0	7300	189.016217641851	1819
0	7304	189.106413164066	1820
0	7307	189.228425594561	1821
0	7310	189.398955488067	1822
0	7311	189.577281379066	1823
0	7318	189.755482053316	1824
0	7319	189.937906075522	1825
0	7321	190.12123104619	1826
0	7323	190.185743836175	1827
0	7325	190.359715982884	1828
0	7326	190.503334909867	1829
0	7328	190.651760060052	1830
0	7334	190.795242803111	1831
0	7335	190.915019718521	1832
0	7336	191.10830177716	1833
0	7339	191.152657591915	1834
0	7341	191.175769482223	1835
0	7354	191.350583068985	1836
0	7355	191.444765293128	1837
0	7361	191.540223869176	1838
0	7364	191.709732359541	1839
0	7365	191.866212525154	1840
0	7367	191.904074387693	1841
0	7375	191.968551116642	1842
0	7378	192.117257329133	1843
0	7380	192.135663079844	1844
0	7384	192.240897544991	1845
0	7387	192.292844437692	1846
0	7388	192.423197835349	1847
0	7390	192.539630893178	1848
0	7391	192.739306885901	1849
0	7397	192.823690926056	1850
0	7399	192.844703464897	1851
0	7401	193.020296301209	1852
0	7408	193.1466025433	1853
0	7411	193.221663220956	1854
0	7416	193.349405545518	1855
0	7424	193.501322987811	1856
0	7428	193.52628047281	1857
0	7437	193.720349873822	1858
0	7441	193.768667032058	1859
0	7446	193.889306649634	1860
0	7448	193.987104875097	1861
0	7453	194.10215959634	1862
0	7458	194.261993293593	1863
0	7460	194.326203257105	1864
0	7464	194.420213665572	1865
0	7467	194.570786760702	1866
0	7468	194.742341505777	1867
0	7472	194.878381811787	1868
0	7474	194.969276095975	1869
0	7479	195.108185811973	1870
0	7480	195.129280288374	1871
0	7484	195.191827369885	1872
0	7486	195.363910633026	1873
0	7487	195.382727296525	1874
0	7488	195.421193258644	1875
0	7491	195.453525471299	1876
0	7494	195.482308646311	1877
0	7502	195.588188947123	1878
0	7504	195.661883867705	1879
0	7508	195.79317835226	1880
0	7510	195.874731354888	1881
0	7514	195.950723326073	1882
0	7515	196.008079019289	1883
0	7516	196.038199584757	1884
0	7521	196.235297879477	1885
0	7522	196.302050470883	1886
0	7526	196.454035447476	1887
0	7532	196.629565261436	1888
0	7534	196.707327894414	1889
0	7535	196.729950830265	1890
0	7539	196.786666189939	1891
0	7541	196.823116808084	1892
0	7542	196.999515937764	1893
0	7544	197.164509224237	1894
0	7546	197.242945189783	1895
0	7549	197.256180380161	1896
0	7559	197.415653822682	1897
0	7563	197.55970927633	1898
0	7568	197.630930681193	1899
0	7573	197.807612514181	1900
0	7578	197.952725581885	1901
0	7581	198.148305197695	1902
0	7582	198.267799734459	1903
0	7583	198.285073432396	1904
0	7587	198.324698192016	1905
0	7594	198.411796911617	1906
0	7601	198.587532600837	1907
0	7603	198.601460311275	1908
0	7607	198.629462185606	1909
0	7614	198.7960010705	1910
0	7615	198.808752747983	1911
0	7622	198.972790393491	1912
0	7627	199.056637964539	1913
0	7629	199.151744618625	1914
0	7630	199.305164644073	1915
0	7634	199.404595594303	1916
0	7639	199.586072692917	1917
0	7642	199.730306576017	1918
0	7645	199.77726673494	1919
0	7650	199.821429230367	1920
0	7658	199.989691124203	1921
0	7663	200.117256816785	1922
0	7667	200.316006264776	1923
0	7672	200.424345740467	1924
0	7682	200.583411092705	1925
0	7684	200.648284792938	1926
0	7686	200.76225784174	1927
0	7687	200.885407013687	1928
0	7693	201.010783447047	1929
0	7694	201.023959644121	1930
0	7701	201.069588313383	1931
0	7706	201.199096526477	1932
0	7709	201.38075409165	1933
0	7711	201.547617642168	1934
0	7714	201.604305043538	1935
0	7721	201.773804720976	1936
0	7723	201.946589660876	1937
0	7724	202.105430976901	1938
0	7729	202.296918907618	1939
0	7732	202.412508146328	1940
0	7735	202.477176159532	1941
0	7742	202.604166840937	1942
0	7743	202.617306809049	1943
0	7747	202.674584784462	1944
0	7753	202.795290778059	1945
0	7756	202.89931911535	1946
0	7759	203.07818846888	1947
0	7762	203.229738209977	1948
0	7767	203.323560693565	1949
0	7771	203.502872037353	1950
0	7773	203.543913167558	1951
0	7774	203.564739434422	1952
0	7778	203.697853890768	1953
0	7783	203.786122309839	1954
0	7786	203.84459545801	1955
0	7794	203.986364758865	1956
0	7796	204.051577316127	1957
0	7797	204.159673518257	1958
0	7798	204.221556492599	1959
0	7799	204.394820330504	1960
0	7801	204.562840866144	1961
0	7803	204.642051048037	1962
0	7808	204.815233963949	1963
0	7809	204.829513422495	1964
0	7818	204.964631915716	1965
0	7826	205.030057123836	1966
0	7834	205.14828951545	1967
0	7837	205.171948179092	1968
0	7841	205.282171220567	1969
0	7842	205.459067629598	1970
0	7847	205.54821467216	1971
0	7850	205.732653877624	1972
0	7855	205.801314308991	1973
0	7858	205.869776123064	1974
0	7863	205.989672860331	1975
0	7865	206.055267563632	1976
0	7870	206.138371303524	1977
0	7875	206.328230874022	1978
0	7876	206.340665059442	1979
0	7882	206.426701510992	1980
0	7888	206.503119761991	1981
0	7893	206.63892475915	1982
0	7901	206.830498037588	1983
0	7906	206.965478316944	1984
0	7908	206.983808855748	1985
0	7912	207.123803356849	1986
0	7916	207.208782547184	1987
0	7920	207.334904479422	1988
0	7924	207.426326420277	1989
0	7927	207.480393419282	1990
0	7929	207.647493885457	1991
0	7934	207.770395274371	1992
0	7941	207.909323718452	1993
0	7943	207.935460908897	1994
0	7953	208.068285584459	1995
0	7957	208.183221036906	1996
0	7959	208.26974741526	1997
0	7960	208.461738205443	1998
0	7961	208.522061586774	1999
0	7962	208.540023119189	2000
0	7968	208.645325161768	2001
0	7970	208.66686155539	2002
0	7973	208.78757368871	2003
0	7975	208.95574271444	2004
0	7978	208.99432749873	2005
0	7980	209.177503288844	2006
0	7983	209.290137838944	2007
0	7986	209.342154211348	2008
0	7990	209.393665779724	2009
0	7998	209.563022454288	2010
0	8002	209.61592806757	2011
0	8009	209.814226276812	2012
0	8010	209.828745887587	2013
0	8014	209.988555624397	2014
0	8015	210.177538786435	2015
0	8018	210.296046531552	2016
0	8022	210.463628413174	2017
0	8025	210.619041361098	2018
0	8029	210.789194926768	2019
0	8034	210.863403200381	2020
0	8039	211.022676320241	2021
0	8041	211.037907484222	2022
0	8047	211.210019343974	2023
0	8049	211.305562880397	2024
0	8051	211.32366022244	2025
0	8058	211.477658339167	2026
0	8064	211.60391396704	2027
0	8066	211.626891203079	2028
0	8070	211.693561418528	2029
0	8073	211.735043845606	2030
0	8079	211.834862283593	2031
0	8081	211.885881993167	2032
0	8086	212.006460232136	2033
0	8089	212.204081719529	2034
0	8090	212.375884386189	2035
0	8093	212.495643366524	2036
0	8095	212.540957758529	2037
0	8097	212.718477079451	2038
0	8098	212.763867180419	2039
0	8101	212.805901635754	2040
0	8106	212.870574257212	2041
0	8109	212.915529632083	2042
0	8114	213.059736272161	2043
0	8117	213.092526668328	2044
0	8123	213.155892417456	2045
0	8132	213.303311966869	2046
0	8134	213.466940290646	2047
0	8136	213.48846790483	2048
0	8146	213.641962546611	2049
0	8147	213.670701099728	2050
0	8152	213.864430165548	2051
0	8156	213.962944949948	2052
0	8158	214.049133698695	2053
0	8161	214.178845193739	2054
0	8163	214.223551654372	2055
0	8169	214.352176967902	2056
0	8177	214.520802517031	2057
0	8182	214.710492902278	2058
0	8183	214.842454626703	2059
0	8190	214.993750275835	2060
0	8193	215.174084652442	2061
0	8196	215.251149391349	2062
0	8201	215.336150866664	2063
0	8202	215.372644004832	2064
0	8211	215.545123669606	2065
0	8218	215.697805350449	2066
0	8220	215.852126668927	2067
0	8224	215.979083883402	2068
0	8226	216.163738455396	2069
0	8232	216.344903751948	2070
0	8236	216.429883954223	2071
0	8243	216.557141234023	2072
0	8246	216.639076017198	2073
0	8250	216.731324508098	2074
0	8251	216.781341290943	2075
0	8256	216.894962169476	2076
0	8259	217.005394247579	2077
0	8261	217.158205512815	2078
0	8266	217.218250906413	2079
0	8268	217.318101677868	2080
0	8270	217.497456989318	2081
0	8275	217.58514840766	2082
0	8282	217.698039129389	2083
0	8289	217.837748308171	2084
0	8294	217.981511622496	2085
0	8297	218.175967147854	2086
0	8300	218.328236357144	2087
0	8303	218.375424075514	2088
0	8306	218.489870504007	2089
0	8309	218.548366462615	2090
0	8314	218.586388519023	2091
0	8322	218.736044598956	2092
0	8323	218.781708062548	2093
0	8327	218.843175167607	2094
0	8331	218.935488858112	2095
0	8333	218.982440362171	2096
0	8342	219.125002550388	2097
0	8345	219.170085902138	2098
0	8353	219.363287737787	2099
0	8354	219.531306558548	2100
0	8359	219.712827835706	2101
0	8362	219.809743264326	2102
0	8365	219.921547164686	2103
0	8367	220.070975380905	2104
0	8373	220.2252395074	2105
0	8381	220.414776214256	2106
0	8386	220.595836363742	2107
0	8389	220.685819050805	2108
0	8394	220.811439794882	2109
0	8401	221.002246375501	2110
0	8403	221.059109592398	2111
0	8404	221.24708083438	2112
0	8409	221.379854223132	2113
0	8417	221.565299291212	2114
0	8421	221.62419985987	2115
0	8424	221.663466213811	2116
0	8426	221.686440455878	2117
0	8433	221.85884480461	2118
0	8439	222.027084101767	2119
0	8444	222.175814739552	2120
0	8445	222.187111109956	2121
0	8449	222.255440180215	2122
0	8450	222.356633043014	2123
0	8456	222.517275167137	2124
0	8458	222.625541265685	2125
0	8461	222.787912127682	2126
0	8468	222.983556018173	2127
0	8473	223.11552620348	2128
0	8474	223.235246001889	2129
0	8476	223.280827622148	2130
0	8487	223.474317648452	2131
0	8494	223.64611703094	2132
0	8501	223.806475770361	2133
0	8506	223.950211668871	2134
0	8508	224.055954600363	2135
0	8513	224.245387763509	2136
0	8516	224.306522441152	2137
0	8523	224.484164159724	2138
0	8524	224.494203481043	2139
0	8528	224.668020808159	2140
0	8533	224.737673862823	2141
0	8538	224.85531782699	2142
0	8541	224.988948279134	2143
0	8543	225.02602796411	2144
0	8548	225.079453366628	2145
0	8555	225.256902276863	2146
0	8557	225.329949967182	2147
0	8558	225.350230266902	2148
0	8561	225.499478860575	2149
0	8565	225.585602054178	2150
0	8571	225.72788224008	2151
0	8572	225.88424792104	2152
0	8575	226.066537019481	2153
0	8577	226.088728194894	2154
0	8580	226.12234582604	2155
0	8582	226.227524953565	2156
0	8585	226.365593773016	2157
0	8586	226.418019985839	2158
0	8591	226.555294217736	2159
0	8597	226.675819200206	2160
0	8598	226.870981052603	2161
0	8604	226.998312742146	2162
0	8606	227.026100053086	2163
0	8615	227.154996607373	2164
0	8619	227.216483654533	2165
0	8624	227.285964334488	2166
0	8625	227.29971697777	2167
0	8631	227.361328391383	2168
0	8633	227.433529499312	2169
0	8634	227.566017734468	2170
0	8639	227.765038354072	2171
0	8640	227.780868713163	2172
0	8649	227.894130607784	2173
0	8650	227.910403167218	2174
0	8660	228.03323728111	2175
0	8667	228.148874740772	2176
0	8670	228.198629288132	2177
0	8674	228.376248587152	2178
0	8675	228.396079711021	2179
0	8681	228.516495006828	2180
0	8682	228.679094252068	2181
0	8684	228.747740490836	2182
0	8686	228.780845729044	2183
0	8690	228.963512430565	2184
0	8694	229.081716569296	2185
0	8698	229.134097368456	2186
0	8706	229.241832110772	2187
0	8709	229.433919490922	2188
0	8715	229.555681678009	2189
0	8720	229.68663941559	2190
0	8724	229.785435268444	2191
0	8726	229.852427368595	2192
0	8730	230.045500851786	2193
0	8734	230.191885801251	2194
0	8735	230.236179711677	2195
0	8738	230.287052878023	2196
0	8747	230.408005294118	2197
0	8751	230.538364713737	2198
0	8753	230.598732629195	2199
0	8756	230.667003685045	2200
0	8762	230.843686659369	2201
0	8766	230.974861805011	2202
0	8770	231.087453469374	2203
0	8775	231.286031105228	2204
0	8780	231.444814494479	2205
0	8781	231.612663070228	2206
0	8784	231.727403848298	2207
0	8785	231.741613932826	2208
0	8797	231.907167764177	2209
0	8803	232.017406965197	2210
0	8809	232.212443391954	2211
0	8810	232.401805087925	2212
0	8812	232.539148090569	2213
0	8814	232.683656045381	2214
0	8817	232.714682271258	2215
0	8823	232.747433548715	2216
0	8830	232.811847703663	2217
0	8832	232.823261271118	2218
0	8836	232.992545864441	2219
0	8839	233.10255648682	2220
0	8843	233.172509505461	2221
0	8845	233.366200181787	2222
0	8847	233.39506864732	2223
0	8850	233.509043552297	2224
0	8854	233.592588918678	2225
0	8859	233.707228088045	2226
0	8864	233.90718898358	2227
0	8866	233.969939158323	2228
0	8870	234.083051020502	2229
0	8875	234.249310280952	2230
0	8879	234.302110751901	2231
0	8880	234.478117085287	2232
0	8883	234.563299576108	2233
0	8888	234.745787995666	2234
0	8890	234.813352306077	2235
0	8896	234.922049638943	2236
0	8900	235.109236931151	2237
0	8901	235.124565279258	2238
0	8903	235.275192005271	2239
0	8906	235.338409771451	2240
0	8911	235.405943027751	2241
0	8916	235.525613039853	2242
0	8919	235.708654763575	2243
0	8923	235.78398929985	2244
0	8928	235.839161169256	2245
0	8932	235.96132281658	2246
0	8935	236.159142084995	2247
0	8941	236.316120402285	2248
0	8947	236.47022268913	2249
0	8949	236.519319809985	2250
0	8951	236.625454339634	2251
0	8956	236.788085545418	2252
0	8962	236.960322858547	2253
0	8964	237.031871459305	2254
0	8967	237.161527643446	2255
0	8970	237.331177165138	2256
0	8974	237.522194786624	2257
0	8976	237.617277836956	2258
0	8980	237.75596399535	2259
0	8984	237.804520843353	2260
0	8987	237.978309651052	2261
0	8990	238.147858313296	2262
0	8995	238.332441565957	2263
0	8997	238.459398925886	2264
0	9002	238.586008441252	2265
0	9005	238.64537659126	2266
0	9010	238.779296583446	2267
0	9015	238.894088138706	2268
0	9020	239.020155221751	2269
0	9025	239.109740615567	2270
0	9026	239.134215342943	2271
0	9029	239.18715899186	2272
0	9033	239.251142186942	2273
0	9038	239.439716166156	2274
0	9047	239.635432465026	2275
0	9052	239.798141255766	2276
0	9053	239.89527001425	2277
1	2	0.142870607559	1
1	8	0.262604003728	2
1	14	0.568528558146	3
1	17	0.633132771707	4
1	25	0.723069102793	5
1	28	0.875704043891	6
1	36	1.082739868846	7
1	39	1.275775866163	8
1	42	1.463590585412	9
1	56	1.749444163281	10
1	61	2.051305250906	11
1	64	2.066690714763	12
1	71	2.132679969349	13
1	75	2.242523903456	14
1	82	2.427688085639	15
1	85	2.462760231874	16
1	94	2.538700934548	17
1	105	2.599197935305	18
1	115	2.872055830511	19
1	119	2.955147093861	20
1	125	3.253922515587	21
1	129	3.491241556308	22
1	131	3.506978017237	23
1	140	3.578416742175	24
1	145	3.73720107765	25
1	154	3.870580000333	26
1	160	3.993989785739	27
1	165	4.26168113539	28
1	170	4.430186572824	29
1	175	4.503140723081	30
1	188	4.686173616359	31
1	195	4.922588079003	32
1	198	4.955195528978	33
1	208	5.149852944046	34
1	211	5.212698525755	35
1	218	5.330643208809	36
1	226	5.453542640854	37
1	229	5.622824554144	38
1	237	5.747508386247	39
1	243	5.927081031701	40
1	247	5.983134998363	41
1	250	6.107490712467	42
1	255	6.230978980152	43
1	260	6.296613307822	44
1	265	6.465246448176	45
1	275	6.923701245914	46
1	280	7.009603910538	47
1	283	7.163619749501	48
1	292	7.63683722843	49
1	299	7.734237581396	50
1	303	7.783738100524	51
1	311	7.841022796086	52
1	327	8.363052575071	53
1	332	8.515556999285	54
1	336	8.631504985263	55
1	339	8.826989532822	56
1	343	8.92911765381	57
1	349	9.001591554472	58
1	357	9.253423553038	59
1	368	9.429142023247	60
1	382	9.812036846961	61
1	387	10.006015411535	62
1	393	10.41733963667	63
1	398	10.51741459546	64
1	404	10.721295862791	65
1	406	10.7523009954	66
1	410	10.807428401144	67
1	419	11.060735064518	68
1	422	11.124389311775	69
1	434	11.355873749927	70
1	441	11.427712945984	71
1	447	11.519647676646	72
1	455	11.615555585934	73
1	459	11.788198992493	74
1	463	11.835588344294	75
1	471	11.948735052553	76
1	474	12.054411812311	77
1	483	12.189836788607	78
1	489	12.288664012181	79
1	493	12.332707676414	80
1	500	12.494884311066	81
1	506	12.786899944059	82
1	511	12.899214189172	83
1	514	13.033498196654	84
1	519	13.203209520987	85
1	522	13.234929652558	86
1	528	13.399418713481	87
1	532	13.669489254401	88
1	536	13.718046943712	89
1	540	13.741678237053	90
1	551	13.835136300255	91
1	555	13.870560720718	92
1	558	13.885179967044	93
1	573	14.252676416398	94
1	582	14.447369814484	95
1	587	14.528990332032	96
1	601	15.047632374984	97
1	607	15.15351327612	98
1	613	15.263881872611	99
1	618	15.396375799623	100
1	626	15.605165538149	101
1	631	15.695039475554	102
1	635	15.860523949452	103
1	644	15.976881264934	104
1	657	16.127514819388	105
1	662	16.342245749801	106
1	666	16.38152891863	107
1	670	16.429621355832	108
1	673	16.558098628687	109
1	677	16.660180171801	110
1	686	16.93315856793	111
1	689	17.085911779819	112
1	695	17.143479782254	113
1	699	17.243350555623	114
1	705	17.379659980871	115
1	711	17.588355678875	116
1	715	17.737456221464	117
1	721	17.840149424905	118
1	732	18.093978272145	119
1	737	18.171614504685	120
1	747	18.31335365698	121
1	754	18.607486893833	122
1	759	18.662698952626	123
1	766	18.825431117934	124
1	775	19.119709152112	125
1	783	19.36573569535	126
1	785	19.38138372395	127
1	793	19.440864044669	128
1	800	19.484984925047	129
1	805	19.60949891385	130
1	810	19.727745469394	131
1	817	19.849938943749	132
1	821	20.019226349604	133
1	828	20.299293629436	134
1	835	20.395301972091	135
1	845	20.762307196732	136
1	847	20.779564561912	137
1	857	21.057082845292	138
1	864	21.256882572553	139
1	869	21.439443643909	140
1	873	21.502295882926	141
1	877	21.619566672998	142
1	880	21.709816845761	143
1	882	21.725889324025	144
1	891	21.922322845028	145
1	898	22.035502618891	146
1	905	22.282144688421	147
1	909	22.343905655442	148
1	914	22.412555200586	149
1	932	22.774752271581	150
1	938	22.881798968624	151
1	944	23.003227047091	152
1	950	23.146284303436	153
1	955	23.28976402457	154
1	960	23.452430438038	155
1	964	23.530079553513	156
1	977	24.080053253702	157
1	982	24.132415036699	158
1	994	24.496371912255	159
1	1002	24.891615688661	160
1	1009	24.965324494152	161
1	1011	24.987708228185	162
1	1019	25.098430971963	163
1	1025	25.161470015306	164
1	1026	25.166582162404	165
1	1033	25.203402208731	166
1	1042	25.296655646767	167
1	1050	25.38654715197	168
1	1052	25.406725608534	169
1	1059	25.559040754206	170
1	1066	25.76574110753	171
1	1071	26.061235449607	172
1	1075	26.322673895984	173
1	1080	26.400781682355	174
1	1089	26.645467076164	175
1	1094	26.712713466844	176
1	1096	26.734052900402	177
1	1105	26.910429274223	178
1	1113	27.206088741609	179
1	1119	27.266629240537	180
1	1124	27.370752950463	181
1	1126	27.407600877229	182
1	1137	27.564963326907	183
1	1138	27.571758135398	184
1	1151	27.749143545503	185
1	1157	27.82367056467	186
1	1164	27.946309116955	187
1	1171	28.102559608597	188
1	1181	28.67288548657	189
1	1185	28.766857292381	190
1	1196	29.479731579637	191
1	1199	29.508291058505	192
1	1210	29.726280972349	193
1	1217	29.96691041607	194
1	1223	30.295105889145	195
1	1232	30.413310969918	196
1	1237	30.556090581592	197
1	1242	30.738000412805	198
1	1248	30.939113449068	199
1	1252	30.997363769157	200
1	1257	31.034094056658	201
1	1268	31.223986104576	202
1	1271	31.290746902999	203
1	1276	31.50127055019	204
1	1281	31.620372231716	205
1	1285	31.814109596074	206
1	1292	32.336483318121	207
1	1298	32.509865797278	208
1	1300	32.529461127711	209
1	1306	32.687263184155	210
1	1309	32.729610331756	211
1	1314	32.849709906333	212
1	1320	33.004742889589	213
1	1323	33.202378745946	214
1	1331	33.349135058143	215
1	1336	33.424870499115	216
1	1341	33.546301865099	217
1	1346	33.661789624877	218
1	1348	33.690914885868	219
1	1358	34.0364941086	220
1	1363	34.094456506504	221
1	1368	34.187422441391	222
1	1371	34.222223396611	223
1	1377	34.364392382714	224
1	1382	34.42058946986	225
1	1386	34.459659287659	226
1	1392	34.539475233698	227
1	1397	34.760662085949	228
1	1406	35.030747281236	229
1	1411	35.415915101789	230
1	1416	35.510653863883	231
1	1420	35.553302160626	232
1	1424	35.689666869345	233
1	1434	35.960850817872	234
1	1439	36.080221080685	235
1	1445	36.193941461318	236
1	1452	36.361913838415	237
1	1453	36.371021787601	238
1	1461	36.429024579154	239
1	1469	36.796456470156	240
1	1477	37.067919255822	241
1	1480	37.094147536817	242
1	1491	37.304692926944	243
1	1494	37.437871832516	244
1	1500	37.675621332236	245
1	1505	37.979824015705	246
1	1508	38.062707141979	247
1	1513	38.138900605373	248
1	1525	38.513578950804	249
1	1528	38.547466120863	250
1	1534	38.683737151187	251
1	1535	38.687823377438	252
1	1543	38.862010223719	253
1	1551	39.029223119885	254
1	1555	39.086404411739	255
1	1561	39.390931218132	256
1	1564	39.410240634616	257
1	1568	39.595218067958	258
1	1573	39.810182503326	259
1	1576	39.831604511986	260
1	1584	40.029263602153	261
1	1589	40.101349990168	262
1	1597	40.651253468253	263
1	1609	40.984694536569	264
1	1615	41.550568000161	265
1	1619	41.64782788886	266
1	1622	41.711408952417	267
1	1627	41.901546877045	268
1	1630	42.00322922454	269
1	1633	42.08123355462	270
1	1643	42.237600348366	271
1	1649	42.324002100671	272
1	1656	42.491396415782	273
1	1661	42.580530821791	274
1	1667	42.850086963772	275
1	1671	43.02027554204	276
1	1676	43.117747928248	277
1	1679	43.249258821765	278
1	1684	43.429479174393	279
1	1689	43.486830538656	280
1	1694	43.697246167248	281
1	1701	43.789804848434	282
1	1710	44.098935698986	283
1	1713	44.161817400637	284
1	1716	44.195016072361	285
1	1724	44.415170922125	286
1	1729	44.563536968247	287
1	1735	44.847098569648	288
1	1740	44.989651291892	289
1	1747	45.14583389674	290
1	1753	45.354260316188	291
1	1757	45.42449295726	292
1	1764	45.571802415575	293
1	1770	45.7316985049	294
1	1775	46.15583729091	295
1	1780	46.268973143422	296
1	1784	46.460919686538	297
1	1795	46.704790772533	298
1	1799	46.792053596457	299
1	1805	46.97693848402	300
1	1808	47.153405924089	301
1	1819	47.357177522683	302
1	1824	47.541132117996	303
1	1828	47.701368888052	304
1	1832	47.772171374808	305
1	1847	48.042519091135	306
1	1851	48.139990303352	307
1	1854	48.300942174808	308
1	1862	48.464829825935	309
1	1869	48.664590509522	310
1	1873	48.919766912037	311
1	1878	49.005002672332	312
1	1889	49.298161527555	313
1	1892	49.365224112072	314
1	1900	49.496917030846	315
1	1908	49.642833161688	316
1	1912	49.674569375558	317
1	1920	49.99936542976	318
1	1924	50.075536827739	319
1	1930	50.17203486882	320
1	1939	50.351196753229	321
1	1942	50.434728057145	322
1	1946	50.524517286289	323
1	1956	50.913599703919	324
1	1963	51.067942811844	325
1	1966	51.158732894356	326
1	1969	51.361949748815	327
1	1973	51.485846954877	328
1	1980	51.833880034354	329
1	1988	52.021184999589	330
1	1995	52.228573675432	331
1	1998	52.244036565511	332
1	2002	52.270481689341	333
1	2018	52.39011739633	334
1	2026	52.81190995436	335
1	2033	52.960479107118	336
1	2039	53.265017477025	337
1	2043	53.363015968379	338
1	2054	53.550447625119	339
1	2060	53.725276576193	340
1	2063	53.894490854431	341
1	2069	54.212902051071	342
1	2078	54.690864703034	343
1	2084	54.775558965855	344
1	2092	55.036138362959	345
1	2095	55.101229371046	346
1	2103	55.249224256413	347
1	2111	55.36739443988	348
1	2117	55.449247904509	349
1	2124	55.537353661309	350
1	2125	55.55656176838	351
1	2129	55.577266384015	352
1	2132	55.648122045296	353
1	2142	55.834862481189	354
1	2148	55.906580227366	355
1	2153	56.02525843826	356
1	2163	56.285513626611	357
1	2170	56.384807261638	358
1	2173	56.453550706338	359
1	2176	56.526112152165	360
1	2181	56.74390859818	361
1	2185	56.863746422059	362
1	2189	56.936112686291	363
1	2199	57.298627374482	364
1	2204	57.433091872056	365
1	2211	57.552252142632	366
1	2217	57.628884347292	367
1	2220	57.723105198671	368
1	2225	57.759186669373	369
1	2228	57.774567236738	370
1	2236	57.831257452788	371
1	2256	58.141847930431	372
1	2259	58.281401173928	373
1	2264	58.474013589461	374
1	2271	58.628430278072	375
1	2276	58.7956187092	376
1	2284	58.96219273725	377
1	2287	59.068523899697	378
1	2297	59.350505086032	379
1	2303	59.478033714367	380
1	2306	59.516468559452	381
1	2314	59.623102393144	382
1	2316	59.639413393699	383
1	2325	59.787633025455	384
1	2336	60.031943257114	385
1	2345	60.187907543654	386
1	2351	60.507322807873	387
1	2353	60.523232312671	388
1	2359	60.578755795875	389
1	2366	60.771677821099	390
1	2376	61.41330077572	391
1	2380	61.568796397984	392
1	2383	61.610564894409	393
1	2388	61.738249672293	394
1	2395	61.896810138829	395
1	2399	62.026463295525	396
1	2400	62.035982791901	397
1	2410	62.226084823758	398
1	2415	62.355015732306	399
1	2420	62.600547495939	400
1	2423	62.628136411356	401
1	2430	62.947266617598	402
1	2437	63.334367635805	403
1	2438	63.344653964678	404
1	2445	63.513424869524	405
1	2452	63.740010644928	406
1	2455	63.853248032378	407
1	2465	64.117807546295	408
1	2474	64.589043956862	409
1	2480	64.713650187924	410
1	2493	65.107741932328	411
1	2496	65.256269904401	412
1	2502	65.451926758162	413
1	2510	65.839041484998	414
1	2515	65.918379316752	415
1	2517	65.935598158077	416
1	2522	65.984744101133	417
1	2533	66.17721464635	418
1	2538	66.296661192329	419
1	2543	66.428005110399	420
1	2551	66.59698477633	421
1	2555	66.68080871621	422
1	2561	66.87967515319	423
1	2565	66.990787533072	424
1	2575	67.165529988852	425
1	2587	67.471401273063	426
1	2590	67.49077383506	427
1	2596	67.540550590004	428
1	2600	67.604421153713	429
1	2606	67.757927020129	430
1	2610	68.050836029111	431
1	2613	68.108146076303	432
1	2618	68.372113700077	433
1	2624	68.536603056012	434
1	2631	68.808957055351	435
1	2642	68.993247522147	436
1	2646	69.01841817698	437
1	2652	69.199221794642	438
1	2661	69.395718377823	439
1	2664	69.413972449258	440
1	2679	69.674402902635	441
1	2685	69.775158473925	442
1	2689	70.152973604858	443
1	2693	70.23703364653	444
1	2707	70.445481565287	445
1	2713	70.527261776487	446
1	2724	70.752275547669	447
1	2730	70.863958652533	448
1	2738	71.022334809368	449
1	2744	71.449010264895	450
1	2749	71.692159542083	451
1	2756	71.778749360639	452
1	2764	72.019510861064	453
1	2774	72.19883415912	454
1	2777	72.304358270156	455
1	2788	72.63240851034	456
1	2795	72.89485426552	457
1	2798	73.047790569315	458
1	2803	73.347787666667	459
1	2812	73.60012948231	460
1	2820	73.717236572891	461
1	2823	73.782156848226	462
1	2837	74.01547392931	463
1	2841	74.045479703542	464
1	2850	74.343806667803	465
1	2854	74.384691168502	466
1	2861	74.526296399451	467
1	2873	74.791636049145	468
1	2877	74.843659918003	469
1	2884	75.034900862296	470
1	2889	75.211288266396	471
1	2893	75.290967218774	472
1	2897	75.405084242026	473
1	2914	75.852949672395	474
1	2924	75.961826474046	475
1	2932	76.120795077641	476
1	2935	76.152003435389	477
1	2941	76.200826607046	478
1	2949	76.372069667307	479
1	2954	76.671664845441	480
1	2961	76.757014075312	481
1	2968	76.840400193253	482
1	2972	76.897441643104	483
1	2978	77.067865051603	484
1	2983	77.199561013274	485
1	2986	77.222278170056	486
1	2995	77.383503286781	487
1	3001	77.802577532728	488
1	3006	77.875609430196	489
1	3019	78.696889072192	490
1	3022	78.935348080865	491
1	3025	78.970606862103	492
1	3030	79.008081870737	493
1	3036	79.085866002997	494
1	3042	79.174582420163	495
1	3050	79.263039475698	496
1	3054	79.434924723164	497
1	3062	79.808297546521	498
1	3065	79.950976961797	499
1	3071	80.036178189407	500
1	3074	80.174566563961	501
1	3080	80.268936522648	502
1	3089	80.378826859633	503
1	3093	80.535498747659	504
1	3101	80.689987478981	505
1	3106	80.821762525153	506
1	3109	80.855566301267	507
1	3116	80.904587041136	508
1	3125	81.167584646881	509
1	3128	81.189710071885	510
1	3131	81.360629138433	511
1	3135	81.712248906943	512
1	3141	82.007344573752	513
1	3144	82.095735529284	514
1	3147	82.133758499582	515
1	3160	82.544321147603	516
1	3166	82.724033130048	517
1	3173	83.117679421697	518
1	3175	83.145420646016	519
1	3186	83.246671563136	520
1	3189	83.401607967986	521
1	3196	83.551583853395	522
1	3200	83.582912611007	523
1	3215	83.883064162163	524
1	3218	83.967713363761	525
1	3225	84.105615221813	526
1	3234	84.256694652432	527
1	3243	84.446411320232	528
1	3245	84.469795395261	529
1	3252	84.518024129216	530
1	3261	84.690429532377	531
1	3269	84.936034470617	532
1	3276	85.11704510284	533
1	3281	85.236737320829	534
1	3291	85.395749123621	535
1	3294	85.499060701742	536
1	3300	85.58749872946	537
1	3310	85.806188270326	538
1	3318	86.055363710036	539
1	3323	86.185903907736	540
1	3324	86.186705274824	541
1	3333	86.353270066533	542
1	3340	86.483455898566	543
1	3348	86.639690911758	544
1	3357	86.820427344619	545
1	3369	87.037679199692	546
1	3376	87.26568540134	547
1	3381	87.453040593476	548
1	3387	87.583311324991	549
1	3390	87.760899858975	550
1	3396	88.090499593602	551
1	3403	88.318662867065	552
1	3407	88.345755116173	553
1	3410	88.405459259086	554
1	3417	88.595348471112	555
1	3422	88.783767585433	556
1	3432	88.972280380741	557
1	3439	89.368798411216	558
1	3444	89.43907198534	559
1	3453	89.92692965579	560
1	3459	90.126187567276	561
1	3468	90.381688493475	562
1	3471	90.534731634991	563
1	3476	90.666886439261	564
1	3481	90.747248006239	565
1	3483	90.763507648908	566
1	3490	90.930817928185	567
1	3497	91.201737440662	568
1	3501	91.359657912148	569
1	3506	91.48976842554	570
1	3512	91.638060692071	571
1	3517	91.75989764323	572
1	3521	91.98332801556	573
1	3525	92.065129584121	574
1	3530	92.225886328325	575
1	3539	92.449928905432	576
1	3541	92.463153665157	577
1	3556	93.396512580206	578
1	3560	93.553608085922	579
1	3566	93.736300161662	580
1	3574	94.060599936813	581
1	3577	94.240783534948	582
1	3582	94.353261102726	583
1	3586	94.509559648535	584
1	3592	94.760765957219	585
1	3595	94.903163031179	586
1	3600	94.967809958946	587
[...]
11	46	1.514647143536	4
11	52	1.587997283794	5
11	76	2.270936728171	6
11	86	2.469559594055	7
11	88	2.495397567633	8
11	89	2.503479873619	9
11	95	2.542837524695	10
11	97	2.561620027236	11
11	146	3.749917758353	12
11	148	3.780698232949	13
11	171	4.44039524501	14
11	173	4.49210937864	15
11	176	4.51633646963	16
11	179	4.564084552566	17
11	189	4.698592812807	18
11	200	4.979899345799	19
11	214	5.270894637741	20
11	221	5.359186219541	21
11	232	5.663053107235	22
11	244	5.967629629491	23
11	251	6.122947289615	24
11	256	6.247450727192	25
11	266	6.490270576113	26
11	284	7.17756032522	27
11	294	7.669531060605	28
11	319	7.908761125172	29
11	345	8.956672832684	30
11	359	9.295104518169	31
11	364	9.413959534849	32
11	370	9.443830804803	33
11	373	9.471854017723	34
11	374	9.48742871086	35
11	384	9.843150794497	36
11	424	11.176899886771	37
11	427	11.22080892585	38
11	429	11.25177013159	39
11	435	11.37475903705	40
11	440	11.423449608411	41
11	444	11.484976897953	42
11	448	11.531080163684	43
11	456	11.625994858275	44
11	465	11.852067507762	45
11	475	12.068276754131	46
11	477	12.092825919138	47
11	484	12.221969060922	48
11	523	13.246781213093	49
11	539	13.728269130232	50
11	553	13.867144468999	51
11	559	13.891545093788	52
11	575	14.266713945469	53
11	583	14.478437735743	54
11	589	14.546393356111	55
11	590	14.546999418861	56
11	602	15.09156168213	57
11	608	15.168164133557	58
11	620	15.428309297272	59
11	622	15.457865809876	60
11	632	15.720276178357	61
11	636	15.876180178662	62
11	643	15.967423552817	63
11	658	16.148848701991	64
11	664	16.353169624989	65
11	674	16.573513353624	66
11	678	16.692860075709	67
11	706	17.397017914141	68
11	717	17.76624113585	69
11	719	17.816954163564	70
11	723	17.850761619226	71
11	724	17.855773611095	72
11	733	18.107636620536	73
11	736	18.170793541878	74
11	739	18.189703341571	75
11	741	18.204472827708	76
11	769	18.879892067831	77
11	784	19.375833000409	78
11	787	19.400320642867	79
11	788	19.415484276684	80
11	811	19.753592326462	81
11	818	19.87825267355	82
11	830	20.31527608159	83
11	837	20.431407945533	84
11	846	20.774956918089	85
11	874	21.53817721959	86
11	884	21.753945978388	87
11	893	21.946929862675	88
11	915	22.435595295516	89
11	917	22.461900890067	90
11	922	22.537936517431	91
11	980	24.111750973112	92
11	985	24.178624695348	93
11	995	24.511508344614	94
11	1003	24.910038819841	95
11	1012	25.009541666236	96
11	1043	25.306906456463	97
11	1067	25.795850320251	98
11	1081	26.411661015808	99
11	1090	26.669562213753	100
11	1114	27.216395321233	101
11	1125	27.391031703461	102
11	1142	27.603675820435	103
11	1154	27.800396848628	104
11	1160	27.857588915942	105
11	1198	29.502394283882	106
11	1201	29.522981723	107
11	1204	29.556618244733	108
11	1211	29.738788998339	109
11	1218	29.977376204661	110
11	1249	30.949865242254	111
11	1253	31.007552249378	112
11	1262	31.072334614637	113
11	1278	31.521914350214	114
11	1299	32.521452740298	115
11	1315	32.860146950525	116
11	1317	32.886794730703	117
11	1351	33.744642252801	118
11	1359	34.05459958485	119
11	1398	34.775577761278	120
11	1400	34.811966513682	121
11	1425	35.702652826121	122
11	1427	35.744057545737	123
11	1481	37.107937694126	124
11	1496	37.463755870448	125
11	1514	38.15105973057	126
11	1516	38.177073989044	127
11	1518	38.226513753552	128
11	1537	38.711560468745	129
11	1546	38.92680625058	130
11	1556	39.097374457842	131
11	1569	39.60984152209	132
11	1575	39.822994415718	133
11	1580	39.874628838526	134
11	1598	40.663193356708	135
11	1600	40.704506649574	136
11	1634	42.103139982507	137
11	1644	42.262264427492	138
11	1650	42.324178026272	139
11	1653	42.350313570437	140
11	1662	42.594885059898	141
11	1673	43.043543280182	142
11	1695	43.716674817963	143
11	1718	44.21335041728	144
11	1742	45.026994652925	145
11	1787	46.513022589083	146
11	1809	47.178400539745	147
11	1811	47.214873729363	148
11	1813	47.253846962721	149
11	1820	47.375004007537	150
11	1835	47.828760595833	151
11	1838	47.859947287822	152
11	1841	47.89396123432	153
11	1843	47.933003167527	154
11	1863	48.503070938523	155
11	1879	49.028200816621	156
11	1902	49.538947870637	157
11	1904	49.570149533575	158
11	1909	49.656311711831	159
11	1921	50.038798456019	160
11	1925	50.099413508196	161
11	1927	50.130540754368	162
11	1947	50.537766530565	163
11	1957	50.923957088395	164
11	1974	51.516064784726	165
11	1989	52.042621002662	166
11	1997	52.239614466093	167
11	2003	52.275580686614	168
11	2008	52.300815351543	169
11	2034	52.972693266918	170
11	2049	53.441788540159	171
11	2055	53.581974239551	172
11	2072	54.285313071903	173
11	2105	55.261793762582	174
11	2118	55.463614463226	175
11	2134	55.658230407907	176
11	2150	55.950459427009	177
11	2154	56.027664678926	178
11	2158	56.096818701562	179
11	2190	56.963730826154	180
11	2233	57.812282070993	181
11	2245	57.927005687876	182
11	2249	57.958127468919	183
11	2266	58.502071843667	184
11	2277	58.819163051416	185
11	2279	58.868217578743	186
11	2289	59.106585614447	187
11	2291	59.136100995534	188
11	2298	59.360619660465	189
11	2310	59.569026233403	190
11	2317	59.643123203187	191
11	2320	59.708651210446	192
11	2329	59.845896496113	193
11	2355	60.540066188812	194
11	2358	60.568971172209	195
11	2403	62.087098168928	196
11	2407	62.129135257877	197
11	2425	62.670476894575	198
11	2458	63.919928715907	199
11	2475	64.623944191295	200
11	2477	64.653585541355	201
11	2481	64.718301123907	202
11	2486	64.79984572931	203
11	2498	65.304987693912	204
11	2519	65.967416565439	205
11	2523	65.993052664478	206
11	2524	65.996521609805	207
11	2539	66.34806294227	208
11	2544	66.447718592118	209
11	2566	67.046752198987	210
11	2569	67.076360042593	211
11	2571	67.103545696811	212
11	2573	67.148813618302	213
11	2579	67.214815044955	214
11	2583	67.279182452604	215
11	2602	67.636956790044	216
11	2621	68.444303577428	217
11	2627	68.581639021056	218
11	2632	68.81978350618	219
11	2634	68.846662909028	220
11	2654	69.223817002616	221
11	2656	69.247625906994	222
11	2663	69.409586193548	223
11	2667	69.454227767997	224
11	2671	69.494982064734	225
11	2694	70.252428700609	226
11	2696	70.275935146571	227
11	2698	70.314940897745	228
11	2700	70.350215728991	229
11	2702	70.37445095253	230
11	2714	70.540321291247	231
11	2732	70.914787591899	232
11	2754	71.761482966705	233
11	2757	71.796003054345	234
11	2765	72.033600657622	235
11	2767	72.067155888098	236
11	2778	72.332064085915	237
11	2780	72.388980336597	238
11	2789	72.644267110869	239
11	2804	73.370502147253	240
11	2815	73.66244003154	241
11	2824	73.785866943129	242
11	2827	73.813450669142	243
11	2829	73.828352789245	244
11	2851	74.354143727446	245
11	2856	74.40055322174	246
11	2879	74.864371659787	247
11	2898	75.42148266574	248
11	2902	75.517361001949	249
11	2927	76.054014210016	250
11	2934	76.148584783115	251
11	2936	76.166195119558	252
11	2940	76.193311204083	253
11	2955	76.683701746006	254
11	2957	76.728630572744	255
11	2964	76.78778128412	256
11	2969	76.855092151213	257
11	3007	77.906249712879	258
11	3043	79.185303558069	259
11	3076	80.221390233524	260
11	3079	80.262055581503	261
11	3083	80.301007679948	262
11	3167	82.743017945004	263
11	3176	83.146579252249	264
11	3191	83.480973438471	265
11	3207	83.664275398179	266
11	3226	84.118899782815	267
11	3238	84.293356619276	268
11	3249	84.496234045173	269
11	3254	84.537123930666	270
11	3262	84.702066955546	271
11	3270	84.956966464442	272
11	3277	85.127159118115	273
11	3283	85.262141519856	274
11	3285	85.302342384748	275
11	3287	85.328532639362	276
11	3295	85.51165466703	277
11	3301	85.591079408713	278
11	3313	85.858442728432	279
11	3334	86.364858337503	280
11	3353	86.714017880791	281
11	3360	86.871350743283	282
11	3363	86.91217540075	283
11	3370	87.053189785695	284
11	3418	88.621848123693	285
11	3423	88.813415548684	286
11	3425	88.840845930407	287
11	3491	90.946483879044	288
11	3561	93.565945486579	289
11	3578	94.26241533021	290
11	3596	94.915439387035	291
11	3599	94.952349941918	292
11	3607	95.004664694482	293
11	3608	95.015283222765	294
11	3611	95.035814763743	295
11	3616	95.071460192979	296
11	3620	95.12381676634	297
11	3624	95.158733017211	298
11	3631	95.229315775219	299
11	3632	95.235034870928	300
11	3645	95.499689308277	301
11	3647	95.554585122182	302
11	3649	95.600846383401	303
11	3667	95.988275716019	304
11	3673	96.034809483154	305
11	3684	96.465711557265	306
11	3695	96.771451212581	307
11	3710	97.095932037082	308
11	3740	98.083809071416	309
11	3754	98.438912383529	310
11	3756	98.470572135243	311
11	3768	98.93923914083	312
11	3772	98.981115351709	313
11	3780	99.193033268874	314
11	3797	99.424707256264	315
11	3801	99.463638170314	316
11	3813	99.908941134608	317
11	3817	99.971301461732	318
11	3841	101.008379713586	319
11	3843	101.044061036493	320
11	3845	101.084147482387	321
11	3870	101.653500832859	322
11	3883	102.214817821115	323
11	3885	102.239479271284	324
11	3905	102.710065276174	325
11	3915	102.9254304472	326
11	3947	103.538263384333	327
11	3959	104.036536309192	328
11	3965	104.405162466182	329
11	4006	105.019584609364	330
11	4023	105.297673271876	331
11	4030	105.364096737862	332
11	4082	106.351310263517	333
11	4110	106.861484521085	334
11	4122	107.321818207207	335
11	4132	107.936634800735	336
11	4152	108.64324406245	337
11	4156	108.676960215561	338
11	4162	108.720599336206	339
11	4165	108.749893761117	340
11	4167	108.764276210973	341
11	4173	108.864492125552	342
11	4175	108.896134276372	343
11	4181	109.036161443656	344
11	4192	109.290245622721	345
11	4194	109.344137420302	346
11	4215	110.085691948518	347
11	4218	110.12667960944	348
11	4222	110.16501781818	349
11	4234	110.336587394617	350
11	4262	111.075867298727	351
11	4276	111.42991693797	352
11	4282	111.490391243228	353
11	4300	112.013740029511	354
11	4306	112.074713791761	355
11	4316	112.398394371609	356
11	4329	112.732211057346	357
11	4337	112.870848124124	358
11	4350	113.036603142583	359
11	4358	113.169707657813	360
11	4386	113.923950074753	361
11	4390	114.017368476235	362
11	4421	114.685659920715	363
11	4436	115.043165359621	364
11	4438	115.067576024975	365
11	4465	115.733701085038	366
11	4477	116.123728639422	367
11	4495	116.894919798805	368
11	4502	116.988964096186	369
11	4504	117.013253337686	370
11	4507	117.046160859372	371
11	4512	117.065177370777	372
11	4527	117.296940187262	373
11	4533	117.413252974654	374
11	4541	117.58712714612	375
11	4554	117.9379105173	376
11	4556	117.966286355758	377
11	4569	118.406256447078	378
11	4574	118.47155548003	379
11	4580	118.524737205031	380
11	4584	118.57933999819	381
11	4585	118.579760134905	382
11	4588	118.622923138085	383
11	4593	118.658522056811	384
11	4598	118.707297825597	385
11	4601	118.785155890322	386
11	4617	119.35306396592	387
11	4629	119.65070928048	388
11	4638	119.829881099938	389
11	4646	119.998311494704	390
11	4662	120.270416012931	391
11	4669	120.450730063313	392
11	4680	120.563607799035	393
11	4686	120.703142308836	394
11	4697	120.834141483245	395
11	4709	121.132613575965	396
11	4717	121.324656658428	397
11	4749	122.295953743343	398
11	4764	122.715204149779	399
11	4767	122.737902897653	400
11	4771	122.780869396447	401
11	4788	123.15961685648	402
11	4796	123.269740426683	403
11	4804	123.369550471648	404
11	4824	123.750453789108	405
11	4838	124.286324361022	406
11	4845	124.349006453722	407
11	4856	124.61338833998	408
11	4873	125.035466003498	409
11	4901	125.995373070454	410
11	4903	126.02020778912	411
11	4914	126.159945603381	412
11	4920	126.215995170418	413
11	4926	126.292364082439	414
11	4944	126.807924002468	415
11	4957	127.239187677464	416
11	4979	127.666688927688	417
11	5027	129.206329864364	418
11	5034	129.501698306302	419
11	5059	129.876779421091	420
11	5062	129.913145686576	421
11	5073	130.006008159321	422
11	5081	130.100728420683	423
11	5093	130.420777569393	424
11	5100	130.57239098835	425
11	5115	131.310865178181	426
11	5122	131.40789771555	427
11	5126	131.436454781982	428
11	5151	132.035341408503	429
11	5158	132.317655982359	430
11	5163	132.575751990933	431
11	5165	132.597123169931	432
11	5188	133.073574184428	433
11	5190	133.097817727106	434
11	5197	133.377862867057	435
11	5220	134.368836928895	436
11	5224	134.398305081229	437
11	5235	134.49632400474	438
11	5267	135.179686725817	439
11	5269	135.228914163643	440
11	5273	135.285442454933	441
11	5275	135.315709863305	442
11	5277	135.350837326037	443
11	5308	136.228541738297	444
11	5316	136.404300981691	445
11	5385	138.119996856881	446
11	5420	139.306122067642	447
11	5422	139.38724882619	448
11	5440	140.13879638584	449
11	5448	140.430690095593	450
11	5450	140.480793820266	451
11	5482	141.941708329786	452
11	5491	142.058942105173	453
11	5500	142.170269815493	454
11	5505	142.227500866976	455
11	5508	142.265432099076	456
11	5613	145.529300241308	457
11	5650	146.693520550384	458
11	5667	147.062978397027	459
11	5703	147.700313183752	460
11	5730	148.60403676341	461
11	5735	148.645650473441	462
11	5751	148.997581185501	463
11	5756	149.051570026472	464
11	5764	149.196483812708	465
11	5766	149.234123435075	466
11	5794	149.795353722846	467
11	5796	149.830551463826	468
11	5815	150.245730665167	469
11	5828	150.38307775786	470
11	5839	150.651110243283	471
11	5879	151.986243698311	472
11	5881	152.035737635406	473
11	5883	152.076471423163	474
11	5896	152.355391597486	475
11	5904	152.581518245033	476
11	5910	152.892412721076	477
11	5924	153.317946220722	478
11	5928	153.507493619944	479
11	5930	153.534566385917	480
11	5939	153.641141688538	481
11	5970	154.260959415148	482
11	5995	154.880419142199	483
11	6012	155.133579838694	484
11	6018	155.286088562883	485
11	6028	155.55430042223	486
11	6047	155.876521403115	487
11	6053	155.968390243784	488
11	6060	156.026177982737	489
11	6065	156.162147818075	490
11	6090	157.307624392808	491
11	6104	157.764662466568	492
11	6118	158.17841454238	493
11	6150	159.060034491416	494
11	6193	160.59343404441	495
11	6197	160.631998794218	496
11	6201	160.688441786137	497
11	6208	160.730554667893	498
11	6213	160.769243547121	499
11	6214	160.776986786217	500
11	6223	160.906668500085	501
11	6227	160.988030144577	502
11	6231	161.032517045414	503
11	6235	161.069351058674	504
11	6236	161.076271103823	505
11	6241	161.113882451334	506
11	6245	161.189565098961	507
11	6248	161.217440790623	508
11	6251	161.25168802342	509
11	6281	162.487710837559	510
11	6288	162.60981183453	511
11	6306	163.524817829132	512
11	6308	163.568894394916	513
11	6355	165.503536296678	514
11	6365	165.836338144647	515
11	6381	166.211599895897	516
11	6406	166.734486068732	517
11	6407	166.738440077849	518
11	6425	166.918317577003	519
11	6455	167.788159483171	520
11	6457	167.815988048557	521
11	6463	167.872622437447	522
11	6489	168.539102976658	523
11	6509	169.04468080448	524
11	6523	169.543410248969	525
11	6532	169.660007059582	526
11	6536	169.689353316148	527
11	6541	169.724397989907	528
11	6547	169.788379972048	529
11	6561	170.077398605578	530
11	6569	170.192501547201	531
11	6600	170.972485594048	532
11	6608	171.043612121135	533
11	6624	171.620753668147	534
11	6656	172.603161860047	535
11	6661	172.665150508364	536
11	6680	173.124343422532	537
11	6687	173.180825081035	538
11	6718	174.196257882819	539
11	6720	174.228887613623	540
11	6742	174.697617485566	541
11	6747	174.879766880925	542
11	6778	176.003240996527	543
11	6788	176.094124015496	544
11	6792	176.125487012925	545
11	6794	176.148930993311	546
11	6796	176.18667181651	547
11	6844	177.220199157963	548
11	6871	177.753805894998	549
11	6873	177.779436732843	550
11	6883	177.95502927694	551
11	6910	178.930797787183	552
11	6917	179.151260379401	553
11	6919	179.175295522237	554
11	6931	179.424672293003	555
11	6939	179.578021157607	556
11	6947	179.76378407139	557
11	6949	179.804282540178	558
11	6956	179.902103167476	559
11	6958	179.951163647174	560
11	6960	179.985376514494	561
11	6971	180.21355628088	562
11	6974	180.23033782957	563
11	6982	180.322165358363	564
11	7024	181.509969548392	565
11	7065	181.926153077073	566
11	7082	182.744850774884	567
11	7084	182.798718121334	568
11	7108	183.532659542957	569
11	7140	184.377963591516	570
11	7147	184.671630806499	571
11	7166	185.267730621329	572
11	7191	185.900115282348	573
11	7197	186.020163125151	574
11	7220	186.72360806165	575
11	7230	187.255238460346	576
11	7243	187.480239157141	577
11	7245	187.509446601165	578
11	7258	187.905235818323	579
11	7263	188.098096020958	580
11	7265	188.133216242554	581
11	7280	188.465320197688	582
11	7287	188.760398785889	583
11	7293	188.825852277134	584
11	7298	188.940926998737	585
11	7330	190.708043726091	586
11	7344	191.204205482406	587
11	7368	191.906405629118	588
11	7394	192.780870591187	589
11	7403	193.0518884656	590
11	7418	193.383403581762	591
11	7420	193.441642379486	592
11	7422	193.475579505321	593
11	7434	193.603177868823	594
11	7439	193.755569930726	595
11	7442	193.786437393035	596
11	7450	194.037546226246	597
11	7456	194.158629494267	598
11	7462	194.376697622167	599
11	7490	195.449034334099	600
11	7500	195.564853905413	601
11	7506	195.724261664687	602
11	7512	195.900250012587	603
11	7529	196.50564787527	604
11	7547	197.252747708499	605
11	7551	197.270487514071	606
11	7561	197.437395667555	607
11	7565	197.582193718023	608
11	7574	197.813272930386	609
11	7576	197.851610737788	610
11	7597	198.452289994887	611
11	7624	199.009052811559	612
11	7632	199.338074134144	613
11	7644	199.776104510632	614
11	7647	199.803516957266	615
11	7652	199.843901258427	616
11	7654	199.877619190344	617
11	7670	200.364727150001	618
11	7689	200.912740427107	619
11	7734	202.46534825044	620
11	7789	203.888714934772	621
11	7791	203.934017377682	622
11	7815	204.928041940914	623
11	7820	204.993443990512	624
11	7823	205.012952517204	625
11	7828	205.044302231952	626
11	7852	205.756678178868	627
11	7878	206.362283124217	628
11	7880	206.403137638358	629
11	7896	206.674901813196	630
11	7937	207.825574595787	631
11	7944	207.959418218855	632
11	7946	207.979726181683	633
11	7949	208.037445463911	634
11	7964	208.562334947318	635
11	7995	209.479801653633	636
11	8001	209.606360036822	637
11	8004	209.629779421697	638
11	8006	209.674582542434	639
11	8020	210.318231283419	640
11	8027	210.65692130059	641
11	8036	210.89474562116	642
11	8056	211.374616563845	643
11	8060	211.493005376022	644
11	8083	211.912913684386	645
11	8110	212.927097121376	646
11	8119	213.11035735511	647
11	8142	213.589120600568	648
11	8149	213.724608660849	649
11	8171	214.388838526412	650
11	8173	214.412876683432	651
11	8186	214.891799391612	652
11	8206	215.398810439524	653
11	8214	215.597699747406	654
11	8222	215.876080844358	655
11	8228	216.191737276905	656
11	8234	216.387096407261	657
11	8278	217.611837510609	658
11	8285	217.760204398819	659
11	8335	219.012897580955	660
11	8349	219.213768388584	661
11	8369	220.105657768257	662
11	8379	220.32500662908	663
11	8391	220.746418465405	664
11	8414	221.491361353752	665
11	8427	221.691155025428	666
11	8435	221.898019550538	667
11	8442	222.063424386546	668
11	8452	222.406833583434	669
11	8465	222.874233550513	670
11	8477	223.284747296756	671
11	8489	223.51595420138	672
11	8497	223.694402675222	673
11	8499	223.745666857055	674
11	8515	224.284312959703	675
11	8520	224.3401096643	676
11	8546	225.059008232612	677
11	8563	225.529340593776	678
11	8567	225.618286229689	679
11	8593	226.587658880549	680
11	8595	226.622262301339	681
11	8600	226.918959001437	682
11	8607	227.033642808593	683
11	8612	227.077062083647	684
11	8620	227.21659294688	685
11	8627	227.33435971611	686
11	8636	227.600419203652	687
11	8656	227.96725032753	688
11	8658	228.01314673014	689
11	8665	228.079791922737	690
11	8669	228.187154721246	691
11	8697	229.132675803389	692
11	8700	229.162503686123	693
11	8705	229.203850141137	694
11	8722	229.716652120684	695
11	8737	230.265966881003	696
11	8755	230.654918120426	697
11	8768	230.997305287181	698
11	8778	231.329913702096	699
11	8787	231.764670568586	700
11	8791	231.792323639061	701
11	8816	232.706998641065	702
11	8824	232.752047338543	703
11	8877	234.285001120933	704
11	8895	234.90114896842	705
11	8927	235.833668075202	706
11	8958	236.850509023404	707
11	8960	236.878575566747	708
11	8972	237.377519491276	709
11	8982	237.787473032294	710
11	9006	238.646350965797	711
11	9013	238.848938869627	712
11	9018	238.943747308086	713
11	9043	239.518123559284	714

